@<TRIPOS>MOLECULE
ZINC02095830
   47    48     0     0     0
SMALL
USER_CHARGES
2-[(5-carbamoyl-3-ethoxycarbonyl-4-methyl-2-thienyl)carbamoyl]cyclohexane-1-carboxylic acid
@<TRIPOS>ATOM
      1 C1          3.7754   -6.5885    2.4350 C.3       1 <0>        -0.1520
      2 C2          3.6317   -6.0103    1.0258 C.3       1 <0>         0.0568
      3 O1          3.3092   -4.5973    1.1129 O.3       1 <0>        -0.3502
      4 C3          3.1479   -3.9334   -0.0496 C.2       1 <0>         0.5390
      5 O2          3.2735   -4.5200   -1.1073 O.2       1 <0>        -0.4923
      6 C4          2.8209   -2.5032   -0.0383 C.2       1 <0>        -0.2514
      7 C5          1.5039   -2.0686   -0.0234 C.2       1 <0>         0.0322
      8 C6          1.2800   -0.7189   -0.0140 C.2       1 <0>        -0.3270
      9 S1          2.9312   -0.0471   -0.0340 S.3       1 <0>         0.3011
     10 C7          3.8268   -1.5310   -0.0427 C.2       1 <0>         0.1351
     11 N1          5.1964   -1.7096   -0.0560 N.am      1 <0>        -0.6210
     12 C8          6.0156   -0.6394   -0.0582 C.2       1 <0>         0.5248
     13 O3          5.5503    0.4804   -0.0485 O.2       1 <0>        -0.4566
     14 C9          7.5099   -0.8343   -0.0728 C.3       1 <0>        -0.0755
     15 H1          7.7956   -1.3864   -0.9681 H         1 <0>         0.1046
     16 C10         7.9336   -1.6216    1.1688 C.3       1 <0>        -0.1148
     17 C11         9.4507   -1.8195    1.1540 C.3       1 <0>        -0.1141
     18 C12        10.1430   -0.4551    1.1544 C.3       1 <0>        -0.1212
     19 C13         9.7193    0.3322   -0.0871 C.3       1 <0>        -0.0971
     20 C14         8.2022    0.5301   -0.0724 C.3       1 <0>        -0.1120
     21 H2          7.9165    1.0822    0.8230 H         1 <0>         0.0770
     22 C15         7.7848    1.3055   -1.2953 C.2       1 <0>         0.4763
     23 O4          7.0128    0.8170   -2.0860 O.co2     1 <0>        -0.6365
     24 C16         0.0021   -0.0041    0.0020 C.2       1 <0>         0.6215
     25 O5         -1.0437   -0.6270    0.0087 O.2       1 <0>        -0.5387
     26 N2         -0.0162    1.3436    0.0094 N.am      1 <0>        -0.8503
     27 C17         0.3594   -3.0490   -0.0173 C.3       1 <0>        -0.1118
     28 H3          4.0174   -7.6493    2.3696 H         1 <0>         0.0794
     29 H4          4.5730   -6.0657    2.9627 H         1 <0>         0.0672
     30 H5          2.8379   -6.4625    2.9767 H         1 <0>         0.0670
     31 H6          2.8340   -6.5332    0.4981 H         1 <0>         0.0706
     32 H7          4.5691   -6.1364    0.4840 H         1 <0>         0.0706
     33 H8          5.5686   -2.6053   -0.0638 H         1 <0>         0.4173
     34 H9          7.6479   -1.0695    2.0641 H         1 <0>         0.0691
     35 H10         7.4404   -2.5936    1.1685 H         1 <0>         0.0598
     36 H11         9.7526   -2.3804    2.0385 H         1 <0>         0.0625
     37 H12         9.7364   -2.3716    0.2587 H         1 <0>         0.0639
     38 H13         9.8573    0.0970    2.0498 H         1 <0>         0.0609
     39 H14        11.2238   -0.5960    1.1439 H         1 <0>         0.0601
     40 H15        10.2125    1.3042   -0.0869 H         1 <0>         0.0751
     41 H16        10.0049   -0.2199   -0.9825 H         1 <0>         0.0564
     42 H17         0.8172    1.8399    0.0041 H         1 <0>         0.4022
     43 H18        -0.8627    1.8171    0.0160 H         1 <0>         0.4072
     44 H19         0.0735   -3.2802   -1.0434 H         1 <0>         0.0786
     45 H20         0.6673   -3.9638    0.4891 H         1 <0>         0.0580
     46 H21        -0.4905   -2.6120    0.5070 H         1 <0>         0.0978
     47 O6          8.2706    2.5389   -1.5061 O.co2     1 <0>        -0.7697
@<TRIPOS>BOND
     1    1    2 1
     2    1   28 1
     3    1   29 1
     4    1   30 1
     5    2    3 1
     6    2   31 1
     7    2   32 1
     8    3    4 1
     9    4    5 2
    10    4    6 1
    11    6   10 2
    12    6    7 1
    13    7    8 2
    14    7   27 1
    15    8    9 1
    16    8   24 1
    17    9   10 1
    18   10   11 1
    19   11   12 am
    20   11   33 1
    21   12   13 2
    22   12   14 1
    23   14   15 1
    24   14   20 1
    25   14   16 1
    26   16   17 1
    27   16   34 1
    28   16   35 1
    29   17   18 1
    30   17   36 1
    31   17   37 1
    32   18   19 1
    33   18   38 1
    34   18   39 1
    35   19   20 1
    36   19   40 1
    37   19   41 1
    38   20   21 1
    39   20   22 1
    40   22   23 2
    41   22   47 1
    42   24   25 2
    43   24   26 am
    44   26   42 1
    45   26   43 1
    46   27   44 1
    47   27   45 1
    48   27   46 1
@<TRIPOS>MOLECULE
ZINC20635067
   40    41     0     0     0
SMALL
USER_CHARGES
(3R,6S)-6-[2-[(4-acetamidophenyl)amino]-2-oxo-ethyl]-5-oxo-thiomorpholine-3-carboxylic acid
@<TRIPOS>ATOM
      1 C1          5.9573   -9.1260   -4.6103 C.3       1 <0>        -0.1703
      2 C2          5.6334   -7.7138   -4.1957 C.2       1 <0>         0.5071
      3 O1          4.8371   -7.5113   -3.3034 O.2       1 <0>        -0.5280
      4 N1          6.2284   -6.6760   -4.8163 N.am      1 <0>        -0.6853
      5 C3          5.8571   -5.3634   -4.4982 C.ar      1 <0>         0.1220
      6 C4          5.8329   -4.3894   -5.4878 C.ar      1 <0>        -0.1253
      7 C5          5.4670   -3.0958   -5.1742 C.ar      1 <0>        -0.1320
      8 C6          5.1223   -2.7686   -3.8694 C.ar      1 <0>         0.1469
      9 C7          5.1511   -3.7415   -2.8789 C.ar      1 <0>        -0.1050
     10 C8          5.5128   -5.0361   -3.1933 C.ar      1 <0>        -0.0997
     11 N2          4.7510   -1.4560   -3.5512 N.am      1 <0>        -0.6894
     12 C9          3.8291   -1.2295   -2.5945 C.2       1 <0>         0.5116
     13 O2          3.2540   -2.1618   -2.0736 O.2       1 <0>        -0.4954
     14 C10         3.5129    0.1820   -2.1718 C.3       1 <0>        -0.1117
     15 C11         2.4414    0.1595   -1.0799 C.3       1 <0>        -0.0590
     16 H1          2.9224   -0.3484   -0.2309 H         1 <0>         0.1205
     17 C12         2.2011    1.5548   -0.5785 C.2       1 <0>         0.5115
     18 O3          3.1759    2.2638   -0.4445 O.2       1 <0>        -0.5755
     19 N3          1.0347    2.0832   -0.2700 N.am      1 <0>        -0.6894
     20 C13        -0.3015    1.5616   -0.4470 C.3       1 <0>         0.1054
     21 H2         -0.6442    1.9825   -1.4037 H         1 <0>         0.0873
     22 C14        -0.3298    0.0350   -0.5183 C.3       1 <0>        -0.0840
     23 S1          0.8882   -0.4960   -1.7637 S.3       1 <0>        -0.2044
     24 C15        -1.1575    2.0116    0.7088 C.2       1 <0>         0.4641
     25 O4         -0.6428    2.3209    1.7572 O.co2     1 <0>        -0.6197
     26 O5         -2.4917    2.0687    0.5735 O.co2     1 <0>        -0.7479
     27 H3          6.6936   -9.1085   -5.4274 H         1 <0>         0.0775
     28 H4          5.0401   -9.6268   -4.9538 H         1 <0>         0.0979
     29 H5          6.3746   -9.6734   -3.7523 H         1 <0>         0.0970
     30 H6          7.0057   -6.8597   -5.5727 H         1 <0>         0.4313
     31 H7          6.1007   -4.6439   -6.5026 H         1 <0>         0.1265
     32 H8          5.4485   -2.3382   -5.9438 H         1 <0>         0.1284
     33 H9          4.8873   -3.4860   -1.8632 H         1 <0>         0.1368
     34 H10         5.5313   -5.7936   -2.4237 H         1 <0>         0.1381
     35 H11         5.2118   -0.6100   -4.0822 H         1 <0>         0.4334
     36 H12         4.4234    0.6607   -1.7822 H         1 <0>         0.1236
     37 H13         3.1420    0.7498   -3.0379 H         1 <0>         0.1063
     38 H14         1.1828    3.0723    0.1880 H         1 <0>         0.4259
     39 H15        -0.0721   -0.3829    0.4661 H         1 <0>         0.0919
     40 H16        -1.3371   -0.3000   -0.8065 H         1 <0>         0.1309
@<TRIPOS>BOND
     1    1    2 1
     2    1   27 1
     3    1   28 1
     4    1   29 1
     5    2    3 2
     6    2    4 am
     7    4    5 1
     8    4   30 1
     9    5   10 ar
    10    5    6 ar
    11    6    7 ar
    12    6   31 1
    13    7    8 ar
    14    7   32 1
    15    8    9 ar
    16    8   11 1
    17    9   10 ar
    18    9   33 1
    19   10   34 1
    20   11   12 am
    21   11   35 1
    22   12   13 2
    23   12   14 1
    24   14   15 1
    25   14   36 1
    26   14   37 1
    27   15   16 1
    28   15   23 1
    29   15   17 1
    30   17   18 2
    31   17   19 am
    32   19   20 1
    33   19   38 1
    34   20   21 1
    35   20   22 1
    36   20   24 1
    37   22   23 1
    38   22   39 1
    39   22   40 1
    40   24   25 2
    41   24   26 1
@<TRIPOS>MOLECULE
ZINC37436835
   28    29     0     0     0
SMALL
USER_CHARGES

@<TRIPOS>ATOM
      1 C1          0.0039    1.3854   -0.2046 C.ar      1 <0>         0.0642
      2 C2          1.2066    2.0618   -0.2675 C.ar      1 <0>        -0.2023
      3 C3          2.3981    1.3766   -0.0680 C.ar      1 <0>         0.3118
      4 C4          2.3758    0.0124    0.1942 C.ar      1 <0>        -0.1409
      5 C5          1.1700   -0.6576    0.2557 C.ar      1 <0>         0.0850
      6 C6         -0.0147    0.0278    0.0566 C.ar      1 <0>        -0.6751
      7 S1         -1.5512   -0.8311    0.1360 S.o2      1 <0>         2.6422
      8 O1         -1.3300   -1.9862    0.9335 O.2       1 <0>        -1.0021
      9 O2         -2.5414    0.1368    0.4552 O.2       1 <0>        -1.0010
     10 N1         -1.8908   -1.3693   -1.3928 N.2       1 <0>        -1.0222
     11 C7         -3.0528   -2.0866   -1.6331 C.2       1 <0>         0.4029
     12 N2         -3.9954   -2.4255   -0.7801 N.2       1 <0>        -0.6568
     13 C8         -5.0521   -3.1175   -1.1703 C.2       1 <0>         0.1547
     14 C9         -5.1157   -3.4574   -2.4807 C.2       1 <0>        -0.3319
     15 S2         -3.6034   -2.7285   -3.0881 S.3       1 <0>         0.0823
     16 Br1        -6.4444   -4.4295   -3.4111 Br        1 <0>        -0.0033
     17 N3          3.6431   -0.7220    0.4069 N.pl3     1 <0>         0.0474
     18 O3          3.7692   -1.8461   -0.0196 O.2       1 <0>        -0.1365
     19 O4          4.5521   -0.1976    1.0072 O.3       1 <0>        -0.1962
     20 N4          3.6161    2.0573   -0.1314 N.pl3     1 <0>        -0.5754
     21 N5          3.6327    3.4152   -0.2794 N.3       1 <0>        -0.6010
     22 H1         -0.9233    1.9185   -0.3551 H         1 <0>         0.1573
     23 H2          1.2204    3.1222   -0.4718 H         1 <0>         0.1558
     24 H3          1.1519   -1.7180    0.4595 H         1 <0>         0.1622
     25 H4         -5.8297   -3.3996   -0.4759 H         1 <0>         0.1547
     26 H5          4.4501    1.5659   -0.0702 H         1 <0>         0.4146
     27 H6          3.1040    3.8652    0.4527 H         1 <0>         0.3438
     28 H7          4.5790    3.7641   -0.3090 H         1 <0>         0.3656
@<TRIPOS>BOND
     1    1    6 ar
     2    1    2 ar
     3    1   22 1
     4    2    3 ar
     5    2   23 1
     6    3    4 ar
     7    3   20 1
     8    4    5 ar
     9    4   17 1
    10    5    6 ar
    11    5   24 1
    12    6    7 1
    13    7    8 2
    14    7    9 2
    15    7   10 1
    16   10   11 1
    17   11   15 1
    18   11   12 2
    19   12   13 1
    20   13   14 2
    21   13   25 1
    22   14   15 1
    23   14   16 1
    24   17   18 2
    25   17   19 1
    26   20   21 1
    27   20   26 1
    28   21   27 1
    29   21   28 1
@<TRIPOS>MOLECULE
ZINC40578774
   34    34     0     0     0
SMALL
USER_CHARGES

@<TRIPOS>ATOM
      1 C1         -0.0234    1.8873   -0.0432 C.3       1 <0>        -0.6742
      2 S1         -0.0007    0.0735   -0.0271 S.o2      1 <0>         2.6193
      3 O1          0.8300   -0.3963    1.0257 O.2       1 <0>        -0.9535
      4 O2         -1.3178   -0.4339   -0.1921 O.2       1 <0>        -0.9594
      5 N1          0.7940   -0.3545   -1.4155 N.pl3     1 <0>        -1.1157
      6 C2          2.2071   -0.0084   -1.5869 C.3       1 <0>         0.1010
      7 C3          2.7937   -0.8183   -2.7450 C.3       1 <0>         0.1354
      8 N2          4.2068   -0.4721   -2.9165 N.am      1 <0>        -0.7433
      9 C4          4.9334   -1.0657   -3.8841 C.2       1 <0>         0.7054
     10 O3          4.4161   -1.8884   -4.6146 O.2       1 <0>        -0.5865
     11 N3          6.2335   -0.7473   -4.0418 N.am      1 <0>        -0.6528
     12 C5          7.0073   -1.4258   -4.9784 C.ar      1 <0>         0.1983
     13 C6          6.4456   -1.8417   -6.1777 C.ar      1 <0>        -0.1122
     14 C7          7.2155   -2.5151   -7.1058 C.ar      1 <0>        -0.0750
     15 C8          8.5527   -2.7815   -6.8488 C.ar      1 <0>        -0.1273
     16 C9          9.1274   -2.3770   -5.6652 C.ar      1 <0>        -0.0625
     17 C10         8.3624   -1.6884   -4.7175 C.ar      1 <0>        -0.1497
     18 C11         8.9715   -1.2475   -3.4536 C.2       1 <0>         0.5264
     19 O4         10.1729   -1.3903   -3.2709 O.co2     1 <0>        -0.6758
     20 O5          8.2770   -0.7378   -2.5847 O.co2     1 <0>        -0.6854
     21 Br1         6.4421   -3.0780   -8.7370 Br        1 <0>        -0.0709
     22 H1          0.9996    2.2633   -0.0545 H         1 <0>         0.1284
     23 H2         -0.5486    2.2362   -0.9324 H         1 <0>         0.1289
     24 H3         -0.5349    2.2522    0.8475 H         1 <0>         0.1291
     25 H4          0.3238   -0.8344   -2.1151 H         1 <0>         0.4213
     26 H5          2.2966    1.0556   -1.8057 H         1 <0>         0.0730
     27 H6          2.7512   -0.2380   -0.6708 H         1 <0>         0.0914
     28 H7          2.7042   -1.8823   -2.5262 H         1 <0>         0.0762
     29 H8          2.2496   -0.5887   -3.6611 H         1 <0>         0.0739
     30 H9          4.6196    0.1842   -2.3336 H         1 <0>         0.4024
     31 H10         6.6297   -0.0451   -3.5025 H         1 <0>         0.4236
     32 H11         5.4053   -1.6389   -6.3852 H         1 <0>         0.1455
     33 H12         9.1456   -3.3094   -7.5810 H         1 <0>         0.1257
     34 H13        10.1686   -2.5873   -5.4701 H         1 <0>         0.1390
@<TRIPOS>BOND
     1    1    2 1
     2    1   22 1
     3    1   23 1
     4    1   24 1
     5    2    3 2
     6    2    4 2
     7    2    5 1
     8    5    6 1
     9    5   25 1
    10    6    7 1
    11    6   26 1
    12    6   27 1
    13    7    8 1
    14    7   28 1
    15    7   29 1
    16    8    9 am
    17    8   30 1
    18    9   10 2
    19    9   11 am
    20   11   12 1
    21   11   31 1
    22   12   17 ar
    23   12   13 ar
    24   13   14 ar
    25   13   32 1
    26   14   15 ar
    27   14   21 1
    28   15   16 ar
    29   15   33 1
    30   16   17 ar
    31   16   34 1
    32   17   18 1
    33   18   19 2
    34   18   20 1
@<TRIPOS>MOLECULE
ZINC09012240
   43    44     0     0     0
SMALL
USER_CHARGES

@<TRIPOS>ATOM
      1 C1          1.2529    0.3253    0.9148 C.3       1 <0>        -0.1499
      2 C2          0.6940   -1.0607    0.5869 C.3       1 <0>        -0.1184
      3 C3          1.3215   -1.5694   -0.7124 C.3       1 <0>        -0.1296
      4 C4          0.7626   -2.9554   -1.0403 C.3       1 <0>         0.1095
      5 N1          1.3634   -3.4424   -2.2845 N.am      1 <0>        -0.5837
      6 C5          0.7683   -3.1620   -3.4637 C.2       1 <0>         0.5845
      7 O1         -0.2590   -2.5110   -3.5103 O.2       1 <0>        -0.5498
      8 C6          1.4040   -3.6700   -4.6928 C.2       1 <0>        -0.3772
      9 C7          0.8585   -3.4268   -5.9443 C.2       1 <0>         0.2811
     10 N2          1.5385   -3.7718   -7.0535 N.pl3     1 <0>        -0.4919
     11 N3          0.9373   -3.6427   -8.3123 N.pl3     1 <0>        -0.4771
     12 C8          1.6182   -3.9881   -9.4230 C.2       1 <0>         0.5626
     13 S1          0.8834   -3.8304  -10.9612 S.2       1 <0>        -0.5934
     14 N4          2.8775   -4.4577   -9.3226 N.pl3     1 <0>        -0.6256
     15 C9          3.6265   -4.7035  -10.4783 C.ar      1 <0>         0.1265
     16 C10         3.5775   -3.8119  -11.5420 C.ar      1 <0>        -0.0743
     17 C11         4.3185   -4.0572  -12.6814 C.ar      1 <0>        -0.1135
     18 C12         5.1087   -5.1891  -12.7637 C.ar      1 <0>        -0.1165
     19 C13         5.1597   -6.0788  -11.7063 C.ar      1 <0>        -0.1144
     20 C14         4.4252   -5.8366  -10.5621 C.ar      1 <0>        -0.1190
     21 C15         2.6416   -4.4450   -4.5326 C.2       1 <0>         0.5163
     22 O2          3.2865   -4.9454   -5.6073 O.3       1 <0>        -0.6741
     23 N5          3.1099   -4.6410   -3.3109 N.2       1 <0>        -0.6651
     24 C16         2.4985   -4.1548   -2.2342 C.2       1 <0>         0.6711
     25 O3          2.9938   -4.3731   -1.1426 O.2       1 <0>        -0.5740
     26 H1          2.3345    0.2619    1.0341 H         1 <0>         0.0534
     27 H2          1.0165    1.0136    0.1034 H         1 <0>         0.0518
     28 H3          0.8058    0.6876    1.8405 H         1 <0>         0.0513
     29 H4          0.9303   -1.7491    1.3984 H         1 <0>         0.0633
     30 H5         -0.3876   -0.9974    0.4676 H         1 <0>         0.0611
     31 H6          1.0851   -0.8810   -1.5239 H         1 <0>         0.0611
     32 H7          2.4031   -1.6327   -0.5931 H         1 <0>         0.0668
     33 H8          0.9989   -3.6437   -0.2289 H         1 <0>         0.0887
     34 H9         -0.3190   -2.8921   -1.1596 H         1 <0>         0.0799
     35 H10        -0.1120   -2.9606   -6.0290 H         1 <0>         0.1640
     36 H11         2.4449   -4.1097   -6.9813 H         1 <0>         0.4396
     37 H12         0.0309   -3.3048   -8.3845 H         1 <0>         0.4500
     38 H13         3.2645   -4.6252   -8.4491 H         1 <0>         0.4170
     39 H14         2.9603   -2.9279  -11.4785 H         1 <0>         0.1435
     40 H15         4.2806   -3.3645  -13.5091 H         1 <0>         0.1267
     41 H16         5.6870   -5.3788  -13.6559 H         1 <0>         0.1227
     42 H17         5.7778   -6.9618  -11.7737 H         1 <0>         0.1269
     43 H18         4.4688   -6.5295   -9.7348 H         1 <0>         0.1279
@<TRIPOS>BOND
     1    1    2 1
     2    1   26 1
     3    1   27 1
     4    1   28 1
     5    2    3 1
     6    2   29 1
     7    2   30 1
     8    3    4 1
     9    3   31 1
    10    3   32 1
    11    4    5 1
    12    4   33 1
    13    4   34 1
    14    5   24 am
    15    5    6 am
    16    6    7 2
    17    6    8 1
    18    8    9 2
    19    8   21 1
    20    9   10 1
    21    9   35 1
    22   10   11 1
    23   10   36 1
    24   11   12 1
    25   11   37 1
    26   12   13 2
    27   12   14 1
    28   14   15 1
    29   14   38 1
    30   15   20 ar
    31   15   16 ar
    32   16   17 ar
    33   16   39 1
    34   17   18 ar
    35   17   40 1
    36   18   19 ar
    37   18   41 1
    38   19   20 ar
    39   19   42 1
    40   20   43 1
    41   21   22 1
    42   21   23 2
    43   23   24 1
    44   24   25 2
@<TRIPOS>MOLECULE
ZINC65919232
   52    53     0     0     0
SMALL
USER_CHARGES

@<TRIPOS>ATOM
      1 C1         -2.2288   -2.0185    1.6669 C.3       1 <0>        -0.1788
      2 C2         -2.1935   -0.5773    1.1545 C.3       1 <0>         0.0782
      3 C3         -1.6601    0.3423    2.2549 C.3       1 <0>        -0.1447
      4 O1         -1.3386   -0.4987    0.0122 O.3       1 <0>        -0.3217
      5 C4         -1.8893   -0.8037   -1.1934 C.ar      1 <0>         0.0189
      6 C5         -1.1477   -0.6440   -2.3545 C.ar      1 <0>        -0.1060
      7 C6         -1.7062   -0.9535   -3.5791 C.ar      1 <0>        -0.1506
      8 C7         -3.0106   -1.4247   -3.6477 C.ar      1 <0>         0.2539
      9 C8         -3.7523   -1.5843   -2.4847 C.ar      1 <0>        -0.2232
     10 C9         -3.1903   -1.2797   -1.2605 C.ar      1 <0>        -0.1486
     11 N1         -3.5774   -1.7381   -4.8882 N.2       1 <0>        -1.1045
     12 S1         -5.1330   -2.3000   -4.9695 S.o2      1 <0>         2.5575
     13 O2         -5.1055   -3.5441   -4.2833 O.2       1 <0>        -1.0116
     14 O3         -5.9318   -1.2265   -4.4912 O.2       1 <0>        -1.0118
     15 C10        -5.4401   -2.5681   -6.7371 C.3       1 <0>        -0.6356
     16 C11        -6.8423   -3.0854   -6.9305 C.2       1 <0>         0.5465
     17 O4         -7.5634   -3.2564   -5.9705 O.2       1 <0>        -0.5207
     18 N2         -7.2949   -3.3580   -8.1704 N.am      1 <0>        -0.5278
     19 N3         -8.5984   -3.8389   -8.3502 N.am      1 <0>        -0.5307
     20 C12        -9.0510   -4.1116   -9.5901 C.2       1 <0>         0.7140
     21 O5        -10.1823   -4.5289   -9.7462 O.2       1 <0>        -0.5734
     22 N4         -8.2497   -3.9216  -10.6570 N.am      1 <0>        -0.7395
     23 C13        -8.7417   -4.2179  -12.0047 C.3       1 <0>         0.1566
     24 C14        -8.4827   -5.6994  -12.3479 C.3       1 <0>        -0.1375
     25 C15        -8.1118   -5.6818  -13.8516 C.3       1 <0>        -0.1245
     26 C16        -7.2683   -4.3892  -13.9805 C.3       1 <0>        -0.1245
     27 C17        -7.9695   -3.3848  -13.0427 C.3       1 <0>        -0.1329
     28 H1         -2.8809   -2.0784    2.5383 H         1 <0>         0.0620
     29 H2         -2.6088   -2.6736    0.8830 H         1 <0>         0.0652
     30 H3         -1.2219   -2.3302    1.9445 H         1 <0>         0.0615
     31 H4         -3.2004   -0.2656    0.8769 H         1 <0>         0.0675
     32 H5         -0.6532    0.0306    2.5325 H         1 <0>         0.0615
     33 H6         -1.6350    1.3691    1.8898 H         1 <0>         0.0611
     34 H7         -2.3123    0.2824    3.1262 H         1 <0>         0.0682
     35 H8         -0.1333   -0.2771   -2.3010 H         1 <0>         0.1129
     36 H9         -1.1287   -0.8287   -4.4832 H         1 <0>         0.1188
     37 H10        -4.7669   -1.9508   -2.5372 H         1 <0>         0.1033
     38 H11        -3.7655   -1.4083   -0.3554 H         1 <0>         0.1095
     39 H12        -5.3231   -1.6263   -7.2731 H         1 <0>         0.1556
     40 H13        -4.7275   -3.2969   -7.1232 H         1 <0>         0.1556
     41 H14        -6.7181   -3.2213   -8.9382 H         1 <0>         0.4208
     42 H15        -9.1752   -3.9757   -7.5824 H         1 <0>         0.4448
     43 H16        -7.3472   -3.5886  -10.5324 H         1 <0>         0.3918
     44 H17        -9.8077   -3.9998  -12.0691 H         1 <0>         0.0950
     45 H18        -7.6550   -6.0893  -11.7554 H         1 <0>         0.0709
     46 H19        -9.3828   -6.2920  -12.1839 H         1 <0>         0.0726
     47 H20        -7.5185   -6.5579  -14.1134 H         1 <0>         0.0689
     48 H21        -9.0076   -5.6218  -14.4697 H         1 <0>         0.0695
     49 H22        -6.2445   -4.5674  -13.6516 H         1 <0>         0.0680
     50 H23        -7.2821   -4.0255  -15.0079 H         1 <0>         0.0687
     51 H24        -8.6609   -2.7630  -13.6114 H         1 <0>         0.0772
     52 H25        -7.2287   -2.7600  -12.5437 H         1 <0>         0.0720
@<TRIPOS>BOND
     1    1    2 1
     2    1   28 1
     3    1   29 1
     4    1   30 1
     5    2    3 1
     6    2    4 1
     7    2   31 1
     8    3   32 1
     9    3   33 1
    10    3   34 1
    11    4    5 1
    12    5   10 ar
    13    5    6 ar
    14    6    7 ar
    15    6   35 1
    16    7    8 ar
    17    7   36 1
    18    8    9 ar
    19    8   11 1
    20    9   10 ar
    21    9   37 1
    22   10   38 1
    23   11   12 1
    24   12   13 2
    25   12   14 2
    26   12   15 1
    27   15   16 1
    28   15   39 1
    29   15   40 1
    30   16   17 2
    31   16   18 am
    32   18   19 1
    33   18   41 1
    34   19   20 am
    35   19   42 1
    36   20   21 2
    37   20   22 am
    38   22   23 1
    39   22   43 1
    40   23   27 1
    41   23   24 1
    42   23   44 1
    43   24   25 1
    44   24   45 1
    45   24   46 1
    46   25   26 1
    47   25   47 1
    48   25   48 1
    49   26   27 1
    50   26   49 1
    51   26   50 1
    52   27   51 1
    53   27   52 1
@<TRIPOS>MOLECULE
ZINC22636020
   54    58     0     0     0
SMALL
USER_CHARGES
benzyl-(3-hydroxy-4-methoxy-phenyl)BLAHol
@<TRIPOS>ATOM
      1 C1          4.1937   13.2953   -5.8757 C.3       1 <0>         0.0215
      2 O1          5.3401   12.4505   -5.9944 O.3       1 <0>        -0.3045
      3 C2          5.1221   11.1645   -6.3793 C.ar      1 <0>         0.0996
      4 C3          3.8333   10.7259   -6.6375 C.ar      1 <0>        -0.1726
      5 C4          3.6141    9.4200   -7.0346 C.ar      1 <0>        -0.1056
      6 C5          4.6774    8.5460   -7.1642 C.ar      1 <0>        -0.1202
      7 C6          5.9657    8.9771   -6.9083 C.ar      1 <0>        -0.1484
      8 C7          6.1929   10.2863   -6.5153 C.ar      1 <0>         0.1287
      9 O2          7.4597   10.7121   -6.2636 O.3       1 <0>        -0.4970
     10 C8          4.4321    7.1218   -7.5915 C.3       1 <0>         0.3948
     11 H1          4.4946    6.9962   -8.6825 H         1 <0>         0.1265
     12 N1          3.0793    6.7188   -7.1644 N.pl3     1 <0>        -0.7008
     13 C9          2.9576    6.2675   -5.8724 C.2       1 <0>         0.1694
     14 C10         4.0356    5.7202   -5.1634 C.2       1 <0>        -0.2620
     15 C11         3.7438    5.2791   -3.8133 C.2       1 <0>        -0.0033
     16 C12         2.4667    5.4600   -3.3990 C.2       1 <0>        -0.3171
     17 S1          1.6414    6.2015   -4.7807 S.3       1 <0>         0.2202
     18 C13         1.9060    5.0993   -2.0598 C.3       1 <0>         0.1095
     19 N2          2.8582    4.1942   -1.3889 N.4       1 <0>        -0.3960
     20 C14         4.2215    4.7398   -1.4450 C.3       1 <0>        -0.0025
     21 C15         4.7662    4.6498   -2.8732 C.3       1 <0>        -0.0846
     22 C16         2.4510    3.9366   -0.0011 C.3       1 <0>         0.0478
     23 C17         1.1563    3.1654    0.0076 C.ar      1 <0>        -0.1604
     24 C18         1.1750    1.7832    0.0004 C.ar      1 <0>        -0.0935
     25 C19        -0.0126    1.0758    0.0080 C.ar      1 <0>        -0.1133
     26 C20        -1.2190    1.7506    0.0173 C.ar      1 <0>        -0.0846
     27 C21        -1.2377    3.1328    0.0303 C.ar      1 <0>        -0.1137
     28 C22        -0.0501    3.8402    0.0223 C.ar      1 <0>        -0.0967
     29 C23         5.3401    5.6379   -5.8694 C.2       1 <0>         0.4675
     30 N3          5.4571    6.2663   -7.0065 N.2       1 <0>        -0.6340
     31 O3          6.3728    4.9346   -5.3500 O.3       1 <0>        -0.4948
     32 H2          4.5100   14.3003   -5.5597 H         1 <0>         0.1060
     33 H3          3.5048   12.8756   -5.1278 H         1 <0>         0.0548
     34 H4          3.6838   13.3602   -6.8482 H         1 <0>         0.0578
     35 H5          3.0004   11.4055   -6.5326 H         1 <0>         0.1366
     36 H6          2.6096    9.0807   -7.2401 H         1 <0>         0.1213
     37 H7          6.7950    8.2934   -7.0142 H         1 <0>         0.1408
     38 H8          8.3053   10.0168   -6.3715 H         1 <0>         0.4331
     39 H9          2.2367    6.7888   -7.8681 H         1 <0>         0.4504
     40 H10         1.7678    6.0124   -1.4622 H         1 <0>         0.1351
     41 H11         0.9363    4.5970   -2.1915 H         1 <0>         0.1380
     42 H12         4.2080    5.7935   -1.1297 H         1 <0>         0.1301
     43 H13         4.8748    4.1643   -0.7727 H         1 <0>         0.1388
     44 H14         4.9223    3.5974   -3.1527 H         1 <0>         0.1087
     45 H15         5.7187    5.1946   -2.9496 H         1 <0>         0.1289
     46 H16         3.2306    3.3500    0.5069 H         1 <0>         0.1410
     47 H17         2.3115    4.8932    0.5237 H         1 <0>         0.1349
     48 H18         2.1175    1.2560   -0.0115 H         1 <0>         0.1318
     49 H19         0.0021   -0.0041    0.0020 H         1 <0>         0.1356
     50 H20        -2.1469    1.1980    0.0188 H         1 <0>         0.1351
     51 H21        -2.1802    3.6600    0.0422 H         1 <0>         0.1354
     52 H22        -0.0647    4.9201    0.0280 H         1 <0>         0.1301
     53 H23         7.3309    4.8858   -5.8882 H         1 <0>         0.4513
     54 H24         2.8551    3.2319   -1.9219 H         1 <0>         0.4446
@<TRIPOS>BOND
     1    1    2 1
     2    1   32 1
     3    1   33 1
     4    1   34 1
     5    2    3 1
     6    3    8 ar
     7    3    4 ar
     8    4    5 ar
     9    4   35 1
    10    5    6 ar
    11    5   36 1
    12    6    7 ar
    13    6   10 1
    14    7    8 ar
    15    7   37 1
    16    8    9 1
    17    9   38 1
    18   10   11 1
    19   10   30 1
    20   10   12 1
    21   12   13 1
    22   12   39 1
    23   13   17 1
    24   13   14 2
    25   14   15 1
    26   14   29 1
    27   15   21 1
    28   15   16 2
    29   16   17 1
    30   16   18 1
    31   18   19 1
    32   18   40 1
    33   18   41 1
    34   19   20 1
    35   19   22 1
    36   19   54 1
    37   20   21 1
    38   20   42 1
    39   20   43 1
    40   21   44 1
    41   21   45 1
    42   22   23 1
    43   22   46 1
    44   22   47 1
    45   23   28 ar
    46   23   24 ar
    47   24   25 ar
    48   24   48 1
    49   25   26 ar
    50   25   49 1
    51   26   27 ar
    52   26   50 1
    53   27   28 ar
    54   27   51 1
    55   28   52 1
    56   29   30 2
    57   29   31 1
    58   31   53 1
@<TRIPOS>MOLECULE
ZINC39676533
   67    71     0     0     0
SMALL
USER_CHARGES

@<TRIPOS>ATOM
      1 C1         -0.9340   -4.0345   -0.0779 C.ar      1 <0>        -0.0883
      2 C2         -0.6866   -3.9795   -1.4318 C.ar      1 <0>        -0.1112
      3 C3         -1.7329   -3.7386   -2.3165 C.ar      1 <0>         0.0984
      4 N1         -1.8087   -3.6271   -3.6873 N.pl3     1 <0>        -0.5894
      5 C4         -3.1010   -3.3805   -4.0630 C.2       1 <0>         0.0695
      6 C5         -3.8901   -3.3244   -2.9784 C.2       1 <0>        -0.1773
      7 C6         -3.0331   -3.5539   -1.8128 C.ar      1 <0>        -0.0916
      8 C7         -3.2623   -3.6130   -0.4366 C.ar      1 <0>        -0.0647
      9 C8         -2.2207   -3.8567    0.4149 C.ar      1 <0>        -0.0531
     10 Cl1        -2.5058   -3.9307    2.1257 Cl        1 <0>        -0.0667
     11 C9         -5.3758   -3.0726   -2.9629 C.3       1 <0>        -0.0496
     12 C10        -5.6383   -1.5833   -2.7310 C.3       1 <0>         0.1208
     13 N2         -7.0826   -1.3385   -2.7159 N.am      1 <0>        -0.7299
     14 C11        -7.5526   -0.0897   -2.5256 C.2       1 <0>         0.5151
     15 O1         -6.7797    0.8313   -2.3667 O.2       1 <0>        -0.5173
     16 C12        -9.0383    0.1621   -2.5101 C.3       1 <0>        -0.1167
     17 H1         -9.5681   -0.7192   -2.1485 H         1 <0>         0.1180
     18 C13        -9.3672    1.3871   -1.6278 C.3       1 <0>         0.1135
     19 N3         -9.4363    2.5237   -2.5761 N.am      1 <0>        -0.6180
     20 C14       -10.1109    1.9653   -3.7724 C.3       1 <0>         0.1060
     21 C15        -9.5313    0.5439   -3.9159 C.3       1 <0>        -0.0726
     22 C16       -10.6161   -0.4248   -4.3768 C.3       1 <0>        -0.1337
     23 C17       -11.0489   -0.0602   -5.7996 C.3       1 <0>        -0.0101
     24 N4         -9.8901   -0.1280   -6.6982 N.4       1 <0>        -0.5043
     25 C18        -8.8910    0.8721   -6.3030 C.3       1 <0>        -0.0091
     26 C19        -8.3668    0.5468   -4.9015 C.3       1 <0>        -0.1456
     27 C20        -8.9876    3.7813   -2.3925 C.2       1 <0>         0.5540
     28 O2         -9.1194    4.6066   -3.2714 O.2       1 <0>        -0.5298
     29 C21        -8.3222    4.1619   -1.0950 C.3       1 <0>        -0.1050
     30 C22        -9.3030    3.9564    0.0635 C.3       1 <0>        -0.1502
     31 C23        -8.6459    4.4194    1.3664 C.3       1 <0>         0.0609
     32 O3         -8.2582    5.7892    1.2422 O.3       1 <0>        -0.3777
     33 C24        -7.3058    6.0343    0.2053 C.3       1 <0>         0.0589
     34 C25        -7.9090    5.6361   -1.1443 C.3       1 <0>        -0.1362
     35 H2         -0.1203   -4.2220    0.6071 H         1 <0>         0.1399
     36 H3          0.3166   -4.1227   -1.8054 H         1 <0>         0.1331
     37 H4         -3.4365   -3.2499   -5.0812 H         1 <0>         0.1708
     38 H5         -1.0578   -3.7107   -4.2956 H         1 <0>         0.4214
     39 H6         -4.2594   -3.4717   -0.0466 H         1 <0>         0.1306
     40 H7         -5.8052   -3.3727   -3.9188 H         1 <0>         0.0743
     41 H8         -5.8341   -3.6515   -2.1611 H         1 <0>         0.0793
     42 H9         -5.2090   -1.2832   -1.7751 H         1 <0>         0.0743
     43 H10        -5.1800   -1.0044   -3.5328 H         1 <0>         0.0697
     44 H11        -7.7008   -2.0752   -2.8430 H         1 <0>         0.3994
     45 H12       -10.3265    1.2496   -1.1289 H         1 <0>         0.0906
     46 H13        -8.5769    1.5510   -0.8952 H         1 <0>         0.0996
     47 H14       -11.1887    1.9215   -3.6156 H         1 <0>         0.0840
     48 H15        -9.8778    2.5622   -4.6541 H         1 <0>         0.0871
     49 H16       -10.2244   -1.4420   -4.3650 H         1 <0>         0.0978
     50 H17       -11.4733   -0.3567   -3.7070 H         1 <0>         0.1220
     51 H18       -11.8121   -0.7610   -6.1378 H         1 <0>         0.1403
     52 H19       -11.4557    0.9510   -5.8075 H         1 <0>         0.1328
     53 H20        -9.4806   -1.0488   -6.6478 H         1 <0>         0.4272
     54 H21        -8.0634    0.8585   -7.0124 H         1 <0>         0.1379
     55 H22        -9.3491    1.8611   -6.2989 H         1 <0>         0.1341
     56 H23        -7.6382    1.3000   -4.6017 H         1 <0>         0.1223
     57 H24        -7.8938   -0.4352   -4.9088 H         1 <0>         0.0956
     58 H25        -7.4397    3.5408   -0.9419 H         1 <0>         0.1049
     59 H26       -10.2063    4.5394   -0.1162 H         1 <0>         0.0787
     60 H27        -9.5596    2.8998    0.1404 H         1 <0>         0.0778
     61 H28        -9.3547    4.3154    2.1879 H         1 <0>         0.1005
     62 H29        -7.7653    3.8091    1.5663 H         1 <0>         0.0544
     63 H30        -7.0492    7.0936    0.1904 H         1 <0>         0.1021
     64 H31        -6.4076    5.4451    0.3900 H         1 <0>         0.0538
     65 H32        -7.1687    5.7808   -1.9311 H         1 <0>         0.0810
     66 H33        -8.7842    6.2531   -1.3483 H         1 <0>         0.0813
     67 H34       -10.1891    0.0529   -7.6447 H         1 <0>         0.4342
@<TRIPOS>BOND
     1    1    2 ar
     2    1   35 1
     3    1    9 ar
     4    2    3 ar
     5    2   36 1
     6    3    4 1
     7    3    7 ar
     8    4   38 1
     9    4    5 1
    10    5    6 2
    11    5   37 1
    12    6    7 1
    13    6   11 1
    14    7    8 ar
    15    8    9 ar
    16    8   39 1
    17    9   10 1
    18   11   12 1
    19   11   40 1
    20   11   41 1
    21   12   13 1
    22   12   42 1
    23   12   43 1
    24   13   14 am
    25   13   44 1
    26   14   15 2
    27   14   16 1
    28   16   17 1
    29   16   21 1
    30   16   18 1
    31   18   19 1
    32   18   45 1
    33   18   46 1
    34   19   20 1
    35   19   27 am
    36   20   21 1
    37   20   47 1
    38   20   48 1
    39   21   26 1
    40   21   22 1
    41   22   23 1
    42   22   49 1
    43   22   50 1
    44   23   24 1
    45   23   51 1
    46   23   52 1
    47   24   25 1
    48   24   53 1
    49   24   67 1
    50   25   26 1
    51   25   54 1
    52   25   55 1
    53   26   56 1
    54   26   57 1
    55   27   28 2
    56   27   29 1
    57   29   34 1
    58   29   30 1
    59   29   58 1
    60   30   31 1
    61   30   59 1
    62   30   60 1
    63   31   32 1
    64   31   61 1
    65   31   62 1
    66   32   33 1
    67   33   34 1
    68   33   63 1
    69   33   64 1
    70   34   65 1
    71   34   66 1
@<TRIPOS>MOLECULE
ZINC44918823
   56    58     0     0     0
SMALL
USER_CHARGES

@<TRIPOS>ATOM
      1 C1         -0.8514    0.0465   -2.0589 C.3       1 <0>        -0.0619
      2 C2         -0.3359   -0.6350   -0.8176 C.2       1 <0>         0.1720
      3 N1          0.4573   -0.1116    0.0747 N.2       1 <0>        -0.2834
      4 N2          0.6933   -0.9744    0.9996 N.2       1 <0>        -0.2693
      5 C3          0.0531   -2.0876    0.7266 C.2       1 <0>         0.2010
      6 O1         -0.6158   -1.8908   -0.4273 O.3       1 <0>        -0.2216
      7 C4          0.0598   -3.3236    1.5360 C.ar      1 <0>        -0.0286
      8 C5         -0.6682   -4.4390    1.1159 C.ar      1 <0>        -0.0621
      9 C6         -0.6595   -5.5902    1.8725 C.ar      1 <0>        -0.1194
     10 C7          0.0729   -5.6422    3.0538 C.ar      1 <0>         0.1572
     11 C8          0.7990   -4.5330    3.4748 C.ar      1 <0>        -0.1341
     12 C9          0.7989   -3.3809    2.7196 C.ar      1 <0>        -0.0436
     13 N3          0.0789   -6.8093    3.8183 N.am      1 <0>        -0.6383
     14 C10         0.0018   -8.0113    3.2137 C.2       1 <0>         0.5069
     15 O2          0.0212   -8.0837    2.0022 O.2       1 <0>        -0.4895
     16 C11        -0.1075   -9.2542    4.0343 C.2       1 <0>         0.5193
     17 O3         -0.1269   -9.1819    5.2456 O.2       1 <0>        -0.5027
     18 N4         -0.1847  -10.4563    3.4297 N.am      1 <0>        -0.7006
     19 C12        -0.2921  -11.6784    4.2366 C.3       1 <0>         0.1377
     20 C13        -1.7654  -11.9444    4.5517 C.3       1 <0>        -0.1460
     21 C14        -1.8951  -13.2211    5.3816 C.3       1 <0>         0.0604
     22 N5         -1.2470  -14.3576    4.7440 N.4       1 <0>        -0.4920
     23 C15         0.0935  -14.1617    4.2155 C.3       1 <0>         0.0630
     24 C16         0.2477  -12.8614    3.4338 C.3       1 <0>        -0.1428
     25 C17         1.1534  -14.2371    5.3177 C.3       1 <0>        -0.1761
     26 C18         0.3799  -15.3233    3.2342 C.3       1 <0>        -0.1807
     27 C19        -3.4030  -13.5450    5.4918 C.3       1 <0>        -0.1800
     28 C20        -1.3776  -12.9845    6.7999 C.3       1 <0>        -0.1719
     29 H1         -1.7880    0.5555   -1.8316 H         1 <0>         0.1031
     30 H2         -0.1173    0.7740   -2.4054 H         1 <0>         0.1110
     31 H3         -1.0216   -0.6970   -2.8376 H         1 <0>         0.0955
     32 H4         -1.2376   -4.3989    0.1992 H         1 <0>         0.1397
     33 H5         -1.2223   -6.4530    1.5482 H         1 <0>         0.1435
     34 H6          1.3667   -4.5764    4.3925 H         1 <0>         0.1436
     35 H7          1.3661   -2.5213    3.0449 H         1 <0>         0.1504
     36 H8          0.1386   -6.7555    4.7850 H         1 <0>         0.4271
     37 H9         -0.1692  -10.5141    2.4616 H         1 <0>         0.4201
     38 H10         0.2772  -11.5485    5.1525 H         1 <0>         0.1127
     39 H11        -2.1740  -11.1027    5.1136 H         1 <0>         0.1158
     40 H12        -2.3222  -12.0572    3.6202 H         1 <0>         0.0956
     41 H13        -1.2196  -15.1296    5.4147 H         1 <0>         0.4276
     42 H14        -0.2998  -12.9376    2.4905 H         1 <0>         0.0993
     43 H15         1.3046  -12.6944    3.2101 H         1 <0>         0.1194
     44 H16         1.0385  -15.1703    5.8690 H         1 <0>         0.0847
     45 H17         2.1465  -14.1995    4.8699 H         1 <0>         0.1064
     46 H18         1.0299  -13.3951    5.9988 H         1 <0>         0.0831
     47 H19        -0.3537  -15.3074    2.4282 H         1 <0>         0.0828
     48 H20         1.3804  -15.2083    2.8172 H         1 <0>         0.1080
     49 H21         0.3148  -16.2726    3.7660 H         1 <0>         0.0858
     50 H22        -3.8168  -13.6929    4.4943 H         1 <0>         0.0819
     51 H23        -3.5376  -14.4532    6.0793 H         1 <0>         0.0849
     52 H24        -3.9177  -12.7171    5.9796 H         1 <0>         0.1072
     53 H25        -2.0293  -12.2759    7.3110 H         1 <0>         0.1066
     54 H26        -1.3683  -13.9282    7.3454 H         1 <0>         0.0825
     55 H27        -0.3661  -12.5808    6.7550 H         1 <0>         0.0834
     56 H28        -1.8482  -14.6844    3.9833 H         1 <0>         0.4256
@<TRIPOS>BOND
     1    1    2 1
     2    1   29 1
     3    1   30 1
     4    1   31 1
     5    2    6 1
     6    2    3 2
     7    3    4 1
     8    4    5 2
     9    5    6 1
    10    5    7 1
    11    7   12 ar
    12    7    8 ar
    13    8    9 ar
    14    8   32 1
    15    9   10 ar
    16    9   33 1
    17   10   11 ar
    18   10   13 1
    19   11   12 ar
    20   11   34 1
    21   12   35 1
    22   13   14 am
    23   13   36 1
    24   14   15 2
    25   14   16 1
    26   16   17 2
    27   16   18 am
    28   18   19 1
    29   18   37 1
    30   19   24 1
    31   19   20 1
    32   19   38 1
    33   20   21 1
    34   20   39 1
    35   20   40 1
    36   21   22 1
    37   21   27 1
    38   21   28 1
    39   22   23 1
    40   22   41 1
    41   22   56 1
    42   23   24 1
    43   23   25 1
    44   23   26 1
    45   24   42 1
    46   24   43 1
    47   25   44 1
    48   25   45 1
    49   25   46 1
    50   26   47 1
    51   26   48 1
    52   26   49 1
    53   27   50 1
    54   27   51 1
    55   27   52 1
    56   28   53 1
    57   28   54 1
    58   28   55 1
@<TRIPOS>MOLECULE
ZINC63899704
   45    47     0     0     0
SMALL
USER_CHARGES

@<TRIPOS>ATOM
      1 C1          9.0906   -0.7290    4.1524 C.3       1 <0>         0.0030
      2 O1          7.7218   -0.3388    4.0246 O.3       1 <0>        -0.2682
      3 C2          6.7929   -1.3218    4.0971 C.ar      1 <0>         0.3349
      4 C3          7.2196   -2.6434    4.2959 C.ar      1 <0>        -0.2429
      5 C4          6.3331   -3.6645    4.3755 C.ar      1 <0>         0.0620
      6 C5          4.9024   -3.3759    4.2514 C.ar      1 <0>        -0.1990
      7 C6          3.9828   -4.3761    4.3268 C.2       1 <0>         0.1323
      8 C7          2.5230   -3.9920    4.1888 C.3       1 <0>        -0.1231
      9 H1          2.1090   -4.5483    3.3478 H         1 <0>         0.1849
     10 C8          2.2049   -2.5289    3.9785 C.2       1 <0>         0.5258
     11 O2          1.0496   -2.1655    3.8619 O.2       1 <0>        -0.4313
     12 N1          3.1868   -1.6465    3.9222 N.am      1 <0>        -0.6016
     13 C9          4.4739   -1.9805    4.0433 C.ar      1 <0>         0.3643
     14 C10         5.4613   -0.9885    3.9787 C.ar      1 <0>        -0.2705
     15 C11         1.7952   -4.4525    5.4534 C.3       1 <0>        -0.1356
     16 C12         1.8028   -5.9581    5.5174 C.2       1 <0>         0.5173
     17 O3          2.2408   -6.6023    4.5878 O.2       1 <0>        -0.5131
     18 N2          1.3228   -6.5887    6.6075 N.am      1 <0>        -0.6648
     19 C13         1.4299   -7.9797    6.7150 C.ar      1 <0>         0.1944
     20 C14         0.4399   -8.7058    7.3639 C.ar      1 <0>        -0.1602
     21 C15         0.5486  -10.0786    7.4683 C.ar      1 <0>         0.0071
     22 C16         1.6418  -10.7303    6.9275 C.ar      1 <0>        -0.6853
     23 C17         2.6295  -10.0101    6.2811 C.ar      1 <0>         0.0034
     24 C18         2.5237   -8.6377    6.1679 C.ar      1 <0>        -0.1436
     25 S1          1.7767  -12.4819    7.0629 S.o2      1 <0>         2.7018
     26 O4          3.1590  -12.7924    6.9536 O.2       1 <0>        -0.9601
     27 O5          0.9968  -12.8635    8.1878 O.2       1 <0>        -0.9583
     28 N3          1.0384  -13.1341    5.7318 N.pl3     1 <0>        -1.2492
     29 H2          9.3441   -1.4307    3.3578 H         1 <0>         0.0828
     30 H3          9.7281    0.1518    4.0763 H         1 <0>         0.1298
     31 H4          9.2436   -1.2058    5.1206 H         1 <0>         0.0827
     32 H5          8.2756   -2.8508    4.3868 H         1 <0>         0.1728
     33 H6          6.6764   -4.6771    4.5281 H         1 <0>         0.1809
     34 H7          4.2813   -5.4028    4.4785 H         1 <0>         0.1968
     35 H8          5.1772    0.0429    3.8309 H         1 <0>         0.1774
     36 H9          2.3007   -4.0490    6.3308 H         1 <0>         0.1199
     37 H10         0.7657   -4.0949    5.4307 H         1 <0>         0.1421
     38 H11         0.9031   -6.0783    7.3176 H         1 <0>         0.4221
     39 H12        -0.4140   -8.1974    7.7868 H         1 <0>         0.1419
     40 H13        -0.2209  -10.6438    7.9732 H         1 <0>         0.1529
     41 H14         3.4823  -10.5219    5.8601 H         1 <0>         0.1503
     42 H15         3.2929   -8.0764    5.6584 H         1 <0>         0.1429
     43 H16         0.6389  -12.5534    5.0654 H         1 <0>         0.4166
     44 H17         1.0054  -14.0969    5.6185 H         1 <0>         0.4240
     45 H18         2.9621   -0.7127    3.7867 H         1 <0>         0.4399
@<TRIPOS>BOND
     1    1    2 1
     2    1   29 1
     3    1   30 1
     4    1   31 1
     5    2    3 1
     6    3   14 ar
     7    3    4 ar
     8    4    5 ar
     9    4   32 1
    10    5    6 ar
    11    5   33 1
    12    6   13 ar
    13    6    7 2
    14    7    8 1
    15    7   34 1
    16    8    9 1
    17    8   10 1
    18    8   15 1
    19   10   11 2
    20   10   12 am
    21   12   13 2
    22   12   45 1
    23   13   14 ar
    24   14   35 1
    25   15   16 1
    26   15   36 1
    27   15   37 1
    28   16   17 2
    29   16   18 am
    30   18   19 1
    31   18   38 1
    32   19   24 ar
    33   19   20 ar
    34   20   21 ar
    35   20   39 1
    36   21   22 ar
    37   21   40 1
    38   22   23 ar
    39   22   25 1
    40   23   24 ar
    41   23   41 1
    42   24   42 1
    43   25   26 2
    44   25   27 2
    45   25   28 1
    46   28   43 1
    47   28   44 1
@<TRIPOS>MOLECULE
ZINC67289240
   59    61     0     0     0
SMALL
USER_CHARGES

@<TRIPOS>ATOM
      1 C1         -1.3036    1.1488    0.1486 C.3       1 <0>        -0.1171
      2 C2         -0.5976   -0.1822    0.1141 C.ar      1 <0>        -0.1024
      3 C3         -0.5494   -0.9077   -1.0609 C.ar      1 <0>        -0.0861
      4 C4          0.0968   -2.1282   -1.0964 C.ar      1 <0>        -0.1088
      5 C5          0.6998   -2.6300    0.0497 C.ar      1 <0>         0.1224
      6 C6          0.6533   -1.9045    1.2307 C.ar      1 <0>        -0.1096
      7 C7          0.0087   -0.6759    1.2620 C.ar      1 <0>         0.1635
      8 N1         -0.0355    0.0620    2.4503 N.am      1 <0>        -0.6721
      9 C8          0.0577   -0.5676    3.6383 C.2       1 <0>         0.7079
     10 O1          0.2513   -1.7674    3.6770 O.2       1 <0>        -0.5646
     11 N2         -0.0638    0.1326    4.7835 N.am      1 <0>        -0.7403
     12 C9          0.0377   -0.5534    6.0779 C.3       1 <0>         0.1585
     13 C10        -1.3400   -1.0896    6.4717 C.3       1 <0>        -0.1451
     14 C11        -1.2535   -1.7963    7.8239 C.3       1 <0>         0.0601
     15 N3         -0.6715   -0.9453    8.8511 N.4       1 <0>        -0.4913
     16 C12         0.5413   -0.2161    8.5167 C.3       1 <0>         0.0630
     17 C13         0.4861    0.4457    7.1438 C.3       1 <0>        -0.1416
     18 C14         1.7832   -1.1056    8.6178 C.3       1 <0>        -0.1764
     19 C15         0.7083    0.9119    9.5629 C.3       1 <0>        -0.1801
     20 C16        -0.5045   -3.1208    7.6813 C.3       1 <0>        -0.1714
     21 C17        -2.6988   -2.1316    8.2591 C.3       1 <0>        -0.1795
     22 N4          1.3546   -3.8692    0.0129 N.am      1 <0>        -0.5298
     23 C18         0.7123   -5.0215   -0.2151 C.2       1 <0>         0.5252
     24 O2         -0.4784   -5.1345   -0.4125 O.2       1 <0>        -0.4673
     25 C19         1.7082   -6.1604   -0.1879 C.3       1 <0>        -0.1546
     26 C20         3.0516   -5.4590    0.0984 C.3       1 <0>        -0.1547
     27 C21         2.6744   -3.9970    0.1973 C.2       1 <0>         0.5258
     28 O3          3.4449   -3.0860    0.4121 O.2       1 <0>        -0.4699
     29 H1         -0.5982    1.9408   -0.1030 H         1 <0>         0.0770
     30 H2         -2.1197    1.1461   -0.5739 H         1 <0>         0.0788
     31 H3         -1.7034    1.3222    1.1477 H         1 <0>         0.0615
     32 H4         -1.0181   -0.5199   -1.9533 H         1 <0>         0.1399
     33 H5          0.1328   -2.6929   -2.0163 H         1 <0>         0.1301
     34 H6          1.1211   -2.2929    2.1232 H         1 <0>         0.1588
     35 H7         -0.1332    1.0265    2.4189 H         1 <0>         0.4116
     36 H8         -0.2183    1.0897    4.7526 H         1 <0>         0.4034
     37 H9          0.7538   -1.3656    5.9922 H         1 <0>         0.1095
     38 H10        -2.0475   -0.2616    6.5378 H         1 <0>         0.0916
     39 H11        -1.6847   -1.7956    5.7141 H         1 <0>         0.1154
     40 H12        -1.3809   -0.2706    9.1485 H         1 <0>         0.4247
     41 H13         1.4760    0.8305    6.8852 H         1 <0>         0.1170
     42 H14        -0.2164    1.2830    7.1722 H         1 <0>         0.0960
     43 H15         1.7291   -1.8920    7.8649 H         1 <0>         0.0836
     44 H16         2.6761   -0.5033    8.4505 H         1 <0>         0.1058
     45 H17         1.8285   -1.5549    9.6098 H         1 <0>         0.0842
     46 H18         0.7883    0.4752   10.5584 H         1 <0>         0.0852
     47 H19         1.6111    1.4814    9.3423 H         1 <0>         0.1073
     48 H20        -0.1570    1.5736    9.5250 H         1 <0>         0.0819
     49 H21         0.4698   -2.9401    7.2272 H         1 <0>         0.0835
     50 H22        -0.3691   -3.5694    8.6654 H         1 <0>         0.0815
     51 H23        -1.0799   -3.7974    7.0495 H         1 <0>         0.1060
     52 H24        -3.1605   -2.7817    7.5160 H         1 <0>         0.1067
     53 H25        -2.6794   -2.6388    9.2237 H         1 <0>         0.0840
     54 H26        -3.2754   -1.2105    8.3445 H         1 <0>         0.0811
     55 H27         1.4651   -6.8636    0.6087 H         1 <0>         0.1249
     56 H28         1.7379   -6.6671   -1.1525 H         1 <0>         0.1270
     57 H29         3.4769   -5.8133    1.0375 H         1 <0>         0.1248
     58 H30         3.7497   -5.6169   -0.7237 H         1 <0>         0.1264
     59 H31        -0.4851   -1.5198    9.6767 H         1 <0>         0.4267
@<TRIPOS>BOND
     1    1    2 1
     2    1   29 1
     3    1   30 1
     4    1   31 1
     5    2    7 ar
     6    2    3 ar
     7    3    4 ar
     8    3   32 1
     9    4    5 ar
    10    4   33 1
    11    5    6 ar
    12    5   22 1
    13    6    7 ar
    14    6   34 1
    15    7    8 1
    16    8    9 am
    17    8   35 1
    18    9   10 2
    19    9   11 am
    20   11   12 1
    21   11   36 1
    22   12   17 1
    23   12   13 1
    24   12   37 1
    25   13   14 1
    26   13   38 1
    27   13   39 1
    28   14   15 1
    29   14   20 1
    30   14   21 1
    31   15   16 1
    32   15   40 1
    33   15   59 1
    34   16   17 1
    35   16   18 1
    36   16   19 1
    37   17   41 1
    38   17   42 1
    39   18   43 1
    40   18   44 1
    41   18   45 1
    42   19   46 1
    43   19   47 1
    44   19   48 1
    45   20   49 1
    46   20   50 1
    47   20   51 1
    48   21   52 1
    49   21   53 1
    50   21   54 1
    51   22   27 am
    52   22   23 am
    53   23   24 2
    54   23   25 1
    55   25   26 1
    56   25   55 1
    57   25   56 1
    58   26   27 1
    59   26   57 1
    60   26   58 1
    61   27   28 2
@<TRIPOS>MOLECULE
ZINC13418230
   52    54     0     0     0
SMALL
USER_CHARGES
5-methyl-4-oxo-3-[2-oxo-2-[[2-oxo-2-[(2,4,6-trimethylphenyl)amino]ethyl]amino]ethyl]thieno[5,4-d]pyrimidine-6-carboxylic acid
@<TRIPOS>ATOM
      1 C1          6.9478    5.2512    0.2449 C.3       1 <0>        -0.1146
      2 C2          5.5297    4.7419    0.2189 C.ar      1 <0>        -0.0817
      3 C3          5.2745    3.4001    0.4348 C.ar      1 <0>        -0.1156
      4 C4          3.9760    2.9302    0.4116 C.ar      1 <0>        -0.0649
      5 C5          2.9261    3.8067    0.1710 C.ar      1 <0>         0.1278
      6 C6          3.1862    5.1527   -0.0512 C.ar      1 <0>        -0.0860
      7 C7          4.4864    5.6174   -0.0205 C.ar      1 <0>        -0.1158
      8 C8          2.0504    6.1063   -0.3188 C.3       1 <0>        -0.1163
      9 N1          1.6094    3.3338    0.1468 N.am      1 <0>        -0.6698
     10 C9          1.2861    2.2797   -0.6283 C.2       1 <0>         0.5102
     11 O1          2.1143    1.7963   -1.3708 O.2       1 <0>        -0.5127
     12 C10        -0.1045    1.7016   -0.5723 C.3       1 <0>         0.1026
     13 N2         -0.2019    0.5728   -1.5009 N.am      1 <0>        -0.7167
     14 C11        -1.3616   -0.1034   -1.6205 C.2       1 <0>         0.5042
     15 O2         -2.3246    0.2226   -0.9593 O.2       1 <0>        -0.5175
     16 C12        -1.4617   -1.2646   -2.5758 C.3       1 <0>         0.0783
     17 N3         -2.8136   -1.8266   -2.5214 N.am      1 <0>        -0.5212
     18 C13        -3.0839   -2.8215   -1.6411 C.2       1 <0>         0.3641
     19 N4         -4.2713   -3.3555   -1.5463 N.2       1 <0>        -0.4733
     20 C14        -5.2761   -2.9583   -2.3162 C.2       1 <0>         0.0449
     21 C15        -5.1193   -1.9328   -3.2769 C.2       1 <0>        -0.2174
     22 C16        -3.7610   -1.3477   -3.3511 C.2       1 <0>         0.5623
     23 O3         -3.5067   -0.4569   -4.1421 O.2       1 <0>        -0.5166
     24 C17        -6.2586   -1.6150   -4.0187 C.2       1 <0>        -0.0600
     25 C18        -7.4265   -2.2836   -3.7898 C.2       1 <0>        -0.1554
     26 S1         -6.9803   -3.4232   -2.4906 S.3       1 <0>         0.1912
     27 C19        -8.7235   -2.1091   -4.4470 C.2       1 <0>         0.5300
     28 O4         -8.8540   -1.2758   -5.3233 O.co2     1 <0>        -0.6002
     29 C20        -6.1994   -0.5358   -5.0689 C.3       1 <0>        -0.1029
     30 C21         3.6987    1.4678    0.6475 C.3       1 <0>        -0.1085
     31 H1          7.3722    5.1960   -0.7575 H         1 <0>         0.0712
     32 H2          6.9558    6.2863    0.5864 H         1 <0>         0.0665
     33 H3          7.5410    4.6398    0.9248 H         1 <0>         0.0666
     34 H4          6.0914    2.7188    0.6215 H         1 <0>         0.1251
     35 H5          4.6890    6.6648   -0.1885 H         1 <0>         0.1255
     36 H6          1.6265    6.4412    0.6279 H         1 <0>         0.0723
     37 H7          2.4219    6.9668   -0.8752 H         1 <0>         0.0706
     38 H8          1.2813    5.6006   -0.9027 H         1 <0>         0.0667
     39 H9          0.9293    3.7647    0.6879 H         1 <0>         0.4124
     40 H10        -0.8278    2.4670   -0.8537 H         1 <0>         0.1033
     41 H11        -0.3146    1.3580    0.4406 H         1 <0>         0.1044
     42 H12         0.5684    0.3120   -2.0298 H         1 <0>         0.4141
     43 H13        -1.2516   -0.9210   -3.5887 H         1 <0>         0.1328
     44 H14        -0.7385   -2.0300   -2.2944 H         1 <0>         0.1293
     45 H15        -2.2950   -3.1798   -0.9963 H         1 <0>         0.2053
     46 H16        -5.9216   -0.9758   -6.0267 H         1 <0>         0.0620
     47 H17        -7.1764   -0.0607   -5.1571 H         1 <0>         0.0929
     48 H18        -5.4574    0.2095   -4.7826 H         1 <0>         0.0658
     49 H19         3.8492    0.9152   -0.2799 H         1 <0>         0.0849
     50 H20         4.3774    1.0879    1.4111 H         1 <0>         0.0628
     51 H21         2.6688    1.3426    0.9820 H         1 <0>         0.0557
     52 O5         -9.7735   -2.8726   -4.0804 O.co2     1 <0>        -0.7389
@<TRIPOS>BOND
     1    1    2 1
     2    1   31 1
     3    1   32 1
     4    1   33 1
     5    2    7 ar
     6    2    3 ar
     7    3    4 ar
     8    3   34 1
     9    4    5 ar
    10    4   30 1
    11    5    6 ar
    12    5    9 1
    13    6    7 ar
    14    6    8 1
    15    7   35 1
    16    8   36 1
    17    8   37 1
    18    8   38 1
    19    9   10 am
    20    9   39 1
    21   10   11 2
    22   10   12 1
    23   12   13 1
    24   12   40 1
    25   12   41 1
    26   13   14 am
    27   13   42 1
    28   14   15 2
    29   14   16 1
    30   16   17 1
    31   16   43 1
    32   16   44 1
    33   17   22 am
    34   17   18 1
    35   18   19 2
    36   18   45 1
    37   19   20 1
    38   20   26 1
    39   20   21 2
    40   21   22 1
    41   21   24 1
    42   22   23 2
    43   24   25 2
    44   24   29 1
    45   25   26 1
    46   25   27 1
    47   27   28 2
    48   27   52 1
    49   29   46 1
    50   29   47 1
    51   29   48 1
    52   30   49 1
    53   30   50 1
    54   30   51 1
@<TRIPOS>MOLECULE
ZINC30003511
   50    52     0     0     0
SMALL
USER_CHARGES
N-[2-[[[2-(1,3,5-trimethylpyrazol-4-yl)acetyl]amino]carbamoyl]phenyl]thiophene-2-sulfonamide
@<TRIPOS>ATOM
      1 C1          4.1640    0.3383    0.8199 C.3       1 <0>        -0.0755
      2 C2          2.6627    0.4545    0.7601 C.2       1 <0>         0.0936
      3 C3          1.7635   -0.6058    0.6063 C.2       1 <0>        -0.2163
      4 C4          0.5115   -0.0924    0.6003 C.2       1 <0>         0.1018
      5 N1          0.6148    1.2453    0.7452 N.pl3     1 <0>        -0.3752
      6 N2          1.9752    1.5646    0.8435 N.2       1 <0>        -0.3026
      7 C5         -0.4989    2.1962    0.7862 C.3       1 <0>         0.0994
      8 C6         -0.7687   -0.8745    0.4579 C.3       1 <0>        -0.0968
      9 C7          2.1252   -2.0625    0.4711 C.3       1 <0>        -0.0512
     10 C8          2.3130   -2.4003   -0.9855 C.2       1 <0>         0.5078
     11 O1          2.1675   -1.5427   -1.8306 O.2       1 <0>        -0.5487
     12 N3          2.6426   -3.6556   -1.3490 N.am      1 <0>        -0.5289
     13 N4          2.8172   -3.9697   -2.7032 N.am      1 <0>        -0.5538
     14 C9          3.1469   -5.2249   -3.0667 C.2       1 <0>         0.5642
     15 O2          3.2928   -6.0848   -2.2194 O.2       1 <0>        -0.5003
     16 C10         3.3306   -5.5555   -4.4917 C.ar      1 <0>        -0.1917
     17 C11         3.1641   -4.5707   -5.4690 C.ar      1 <0>        -0.0587
     18 C12         3.3371   -4.8859   -6.7987 C.ar      1 <0>        -0.2086
     19 C13         3.6761   -6.1764   -7.1743 C.ar      1 <0>        -0.0593
     20 C14         3.8441   -7.1599   -6.2215 C.ar      1 <0>        -0.2439
     21 C15         3.6795   -6.8598   -4.8747 C.ar      1 <0>         0.2937
     22 N5          3.8537   -7.8466   -3.9133 N.2       1 <0>        -1.0068
     23 S1          5.0136   -9.0101   -4.1217 S.o2      1 <0>         2.6045
     24 O3          5.0377   -9.7781   -2.9264 O.2       1 <0>        -0.9832
     25 O4          4.7802   -9.5924   -5.3967 O.2       1 <0>        -1.0330
     26 C16         6.5672   -8.1850   -4.2215 C.2       1 <0>        -0.6910
     27 C17         7.4287   -7.8638   -3.2256 C.2       1 <0>        -0.0531
     28 C18         8.6044   -7.2091   -3.5414 C.2       1 <0>        -0.1780
     29 C19         8.8611   -6.9076   -4.8377 C.2       1 <0>        -0.1784
     30 S2          7.4188   -7.5620   -5.6616 S.3       1 <0>         0.1284
     31 H1          4.4541   -0.7183    0.7231 H         1 <0>         0.0760
     32 H2          4.5241    0.7307    1.7824 H         1 <0>         0.0740
     33 H3          4.6096    0.9177   -0.0021 H         1 <0>         0.0757
     34 H4         -0.1060    3.2158    0.9130 H         1 <0>         0.0939
     35 H5         -1.1600    1.9504    1.6303 H         1 <0>         0.0772
     36 H6         -1.0668    2.1364   -0.1539 H         1 <0>         0.0775
     37 H7         -1.6251   -0.1848    0.4891 H         1 <0>         0.0681
     38 H8         -0.8501   -1.5978    1.2827 H         1 <0>         0.0851
     39 H9         -0.7653   -1.4117   -0.5020 H         1 <0>         0.0867
     40 H10         3.0595   -2.2605    1.0169 H         1 <0>         0.1031
     41 H11         1.3178   -2.6812    0.8899 H         1 <0>         0.1001
     42 H12         2.7745   -4.4335   -0.5825 H         1 <0>         0.4528
     43 H13         2.6852   -3.1918   -3.4697 H         1 <0>         0.4423
     44 H14         2.9003   -3.5635   -5.1821 H         1 <0>         0.1065
     45 H15         3.2083   -4.1234   -7.5526 H         1 <0>         0.1082
     46 H16         3.8099   -6.4134   -8.2194 H         1 <0>         0.1085
     47 H17         4.1083   -8.1629   -6.5224 H         1 <0>         0.1514
     48 H18         7.2001   -8.1159   -2.2006 H         1 <0>         0.1391
     49 H19         9.3081   -6.9420   -2.7669 H         1 <0>         0.1315
     50 H20         9.7177   -6.4054   -5.2625 H         1 <0>         0.1838
@<TRIPOS>BOND
     1    1    2 1
     2    1   31 1
     3    1   32 1
     4    1   33 1
     5    2    6 2
     6    2    3 1
     7    3    4 2
     8    3    9 1
     9    4    5 1
    10    4    8 1
    11    5    6 1
    12    5    7 1
    13    7   34 1
    14    7   35 1
    15    7   36 1
    16    8   37 1
    17    8   38 1
    18    8   39 1
    19    9   10 1
    20    9   40 1
    21    9   41 1
    22   10   11 2
    23   10   12 am
    24   12   13 1
    25   12   42 1
    26   13   14 am
    27   13   43 1
    28   14   15 2
    29   14   16 1
    30   16   21 ar
    31   16   17 ar
    32   17   18 ar
    33   17   44 1
    34   18   19 ar
    35   18   45 1
    36   19   20 ar
    37   19   46 1
    38   20   21 ar
    39   20   47 1
    40   21   22 1
    41   22   23 1
    42   23   24 2
    43   23   25 2
    44   23   26 1
    45   26   30 1
    46   26   27 2
    47   27   28 1
    48   27   48 1
    49   28   29 2
    50   28   49 1
    51   29   30 1
    52   29   50 1
@<TRIPOS>MOLECULE
ZINC39482799
   45    47     0     0     0
SMALL
USER_CHARGES

@<TRIPOS>ATOM
      1 C1         -0.0167    1.3784    0.0096 C.ar      1 <0>        -0.1014
      2 C2          1.1698    2.0883    0.0021 C.ar      1 <0>        -0.1065
      3 C3          2.3773    1.4175   -0.0134 C.ar      1 <0>        -0.0959
      4 C4          2.3989    0.0304   -0.0210 C.ar      1 <0>         0.0628
      5 C5          1.2070   -0.6796   -0.0130 C.ar      1 <0>        -0.1146
      6 C6          0.0021   -0.0041    0.0020 C.ar      1 <0>        -0.0994
      7 O1          3.5855   -0.6319   -0.0368 O.3       1 <0>        -0.6622
      8 S1          4.1403   -0.9410    1.3464 S.o2      1 <0>         2.6803
      9 O2          5.4582   -1.4363    1.1539 O.2       1 <0>        -0.9374
     10 O3          3.8634    0.1924    2.1576 O.2       1 <0>        -0.9568
     11 C7          3.1922   -2.2735    2.0022 C.ar      1 <0>        -0.7343
     12 C8          2.0508   -2.0112    2.7369 C.ar      1 <0>         0.0148
     13 C9          1.3023   -3.0522    3.2543 C.ar      1 <0>        -0.1932
     14 C10         1.6956   -4.3640    3.0365 C.ar      1 <0>         0.2597
     15 C11         2.8468   -4.6286    2.2950 C.ar      1 <0>         0.0989
     16 C12         3.5888   -3.5786    1.7758 C.ar      1 <0>         0.0070
     17 N1          3.2497   -5.9509    2.0718 N.pl3     1 <0>        -0.6664
     18 C13         2.7834   -6.6930    0.8907 C.3       1 <0>         0.1442
     19 C14         2.2128   -8.0374    1.3546 C.3       1 <0>         0.0390
     20 N2          3.2148   -8.7355    2.1711 N.3       1 <0>        -0.6839
     21 C15         3.5261   -7.9812    3.3927 C.3       1 <0>         0.1554
     22 H1          2.6100   -7.8106    3.9582 H         1 <0>         0.0738
     23 C16         4.1554   -6.6325    3.0091 C.3       1 <0>         0.1465
     24 Cl1         4.6889   -8.9212    4.4002 Cl        1 <0>        -0.1663
     25 N3          0.9394   -5.4198    3.5600 N.pl3     1 <0>        -1.0699
     26 S2         -0.7094   -5.2932    3.6482 S.o2      1 <0>         2.7631
     27 O4         -1.1880   -6.4814    4.3376 O.2       1 <0>        -1.0704
     28 O5         -1.0005   -4.0784    4.3935 O.2       1 <0>        -1.0671
     29 O6         -1.2014   -5.2230    2.2811 O.3       1 <0>        -1.0674
     30 H2         -0.9596    1.9047    0.0260 H         1 <0>         0.1341
     31 H3          1.1525    3.1682    0.0080 H         1 <0>         0.1367
     32 H4          3.3038    1.9724   -0.0200 H         1 <0>         0.1375
     33 H5          1.2211   -1.7595   -0.0193 H         1 <0>         0.1432
     34 H6         -0.9260   -0.5563    0.0082 H         1 <0>         0.1418
     35 H7          1.7431   -0.9901    2.9074 H         1 <0>         0.1410
     36 H8          0.4116   -2.8437    3.8284 H         1 <0>         0.1770
     37 H9          4.4785   -3.7800    1.1976 H         1 <0>         0.1405
     38 H10         2.0069   -6.1215    0.3823 H         1 <0>         0.0818
     39 H11         3.6192   -6.8645    0.2125 H         1 <0>         0.0632
     40 H12         1.3150   -7.8660    1.9485 H         1 <0>         0.0453
     41 H13         1.9637   -8.6462    0.4855 H         1 <0>         0.0923
     42 H14         2.9123   -9.6724    2.3919 H         1 <0>         0.3510
     43 H15         5.1205   -6.7982    2.5305 H         1 <0>         0.0746
     44 H16         4.2863   -6.0210    3.9018 H         1 <0>         0.0835
     45 H17         1.3813   -6.2253    3.8709 H         1 <0>         0.4039
@<TRIPOS>BOND
     1    1    6 ar
     2    1    2 ar
     3    1   30 1
     4    2    3 ar
     5    2   31 1
     6    3    4 ar
     7    3   32 1
     8    4    5 ar
     9    4    7 1
    10    5    6 ar
    11    5   33 1
    12    6   34 1
    13    7    8 1
    14    8    9 2
    15    8   10 2
    16    8   11 1
    17   11   16 ar
    18   11   12 ar
    19   12   13 ar
    20   12   35 1
    21   13   14 ar
    22   13   36 1
    23   14   15 ar
    24   14   25 1
    25   15   16 ar
    26   15   17 1
    27   16   37 1
    28   17   23 1
    29   17   18 1
    30   18   19 1
    31   18   38 1
    32   18   39 1
    33   19   20 1
    34   19   40 1
    35   19   41 1
    36   20   21 1
    37   20   42 1
    38   21   22 1
    39   21   23 1
    40   21   24 1
    41   23   43 1
    42   23   44 1
    43   25   26 1
    44   25   45 1
    45   26   27 2
    46   26   28 2
    47   26   29 1
@<TRIPOS>MOLECULE
ZINC49544148
   52    55     0     0     0
SMALL
USER_CHARGES

@<TRIPOS>ATOM
      1 C1         -0.0173    1.4248    0.0099 C.3       1 <0>         0.0245
      2 O1          0.0021   -0.0041    0.0020 O.3       1 <0>        -0.3021
      3 C2         -1.2011   -0.6379    0.0101 C.ar      1 <0>         0.1038
      4 C3         -2.3743    0.0994    0.0195 C.ar      1 <0>        -0.1678
      5 C4         -3.5965   -0.5465    0.0272 C.ar      1 <0>        -0.0739
      6 C5         -3.6519   -1.9279    0.0261 C.ar      1 <0>        -0.0948
      7 C6         -2.4852   -2.6694    0.0172 C.ar      1 <0>        -0.1659
      8 C7         -1.2569   -2.0283    0.0032 C.ar      1 <0>         0.0969
      9 O2         -0.1083   -2.7563   -0.0116 O.3       1 <0>        -0.2794
     10 C8         -0.2420   -4.1790   -0.0180 C.3       1 <0>         0.0358
     11 C9          1.1255   -4.8120   -0.0344 C.2       1 <0>         0.5215
     12 O3          2.1170   -4.1136   -0.0400 O.2       1 <0>        -0.5172
     13 N1          1.2468   -6.1543   -0.0427 N.am      1 <0>        -0.8516
     14 C10        -4.8714    0.2570    0.0374 C.3       1 <0>         0.0414
     15 H1         -4.6339    1.3208    0.0372 H         1 <0>         0.0945
     16 C11        -5.7045   -0.0843   -1.2009 C.3       1 <0>        -0.1257
     17 C12        -6.3782   -1.4193   -1.0621 C.2       1 <0>         0.5171
     18 O4         -6.4896   -2.1271   -2.0409 O.2       1 <0>        -0.5445
     19 N2         -6.8640   -1.8557    0.1219 N.am      1 <0>        -0.6237
     20 C13        -6.6011   -1.0824    1.2599 C.2       1 <0>         0.1170
     21 C14        -5.6751   -0.0828    1.2683 C.2       1 <0>        -0.0590
     22 N3         -5.6423    0.4822    2.5065 N.pl3     1 <0>        -0.3821
     23 C15        -6.5317   -0.1231    3.3224 C.2       1 <0>         0.0393
     24 C16        -7.1790   -1.1281    2.5977 C.2       1 <0>        -0.1938
     25 C17        -8.2219   -2.0388    3.0809 C.2       1 <0>         0.5483
     26 O5         -8.6134   -1.9620    4.2381 O.co2     1 <0>        -0.6911
     27 O6         -8.7011   -2.8757    2.3269 O.co2     1 <0>        -0.6914
     28 C18        -4.8050    1.5416    2.8808 C.ar      1 <0>         0.1678
     29 C19        -3.4447    1.4832    2.6068 C.ar      1 <0>        -0.1393
     30 C20        -2.6208    2.5281    2.9764 C.ar      1 <0>        -0.0765
     31 C21        -3.1481    3.6327    3.6196 C.ar      1 <0>        -0.1578
     32 C22        -4.5039    3.6947    3.8951 C.ar      1 <0>         0.1175
     33 C23        -5.3345    2.6533    3.5209 C.ar      1 <0>        -0.1573
     34 F1         -5.0165    4.7749    4.5240 F         1 <0>        -0.1344
     35 H2          1.0053    1.8021    0.0021 H         1 <0>         0.0996
     36 H3         -0.5445    1.7859   -0.8732 H         1 <0>         0.0551
     37 H4         -0.5275    1.7763    0.9067 H         1 <0>         0.0533
     38 H5         -2.3338    1.1787    0.0211 H         1 <0>         0.1380
     39 H6         -4.6086   -2.4288    0.0325 H         1 <0>         0.1318
     40 H7         -2.5312   -3.7485    0.0167 H         1 <0>         0.1356
     41 H8         -0.7791   -4.4975    0.8754 H         1 <0>         0.0952
     42 H9         -0.7960   -4.4879   -0.9044 H         1 <0>         0.0949
     43 H10         0.4538   -6.7129   -0.0382 H         1 <0>         0.4040
     44 H11         2.1270   -6.5617   -0.0533 H         1 <0>         0.4079
     45 H12        -6.4640    0.6848   -1.3420 H         1 <0>         0.1062
     46 H13        -5.0527   -0.1036   -2.0742 H         1 <0>         0.1098
     47 H14        -7.3775   -2.6764    0.1812 H         1 <0>         0.4280
     48 H15        -6.7119    0.1275    4.3574 H         1 <0>         0.1773
     49 H16        -3.0313    0.6208    2.1051 H         1 <0>         0.1443
     50 H17        -1.5631    2.4823    2.7631 H         1 <0>         0.1378
     51 H18        -2.5015    4.4483    3.9079 H         1 <0>         0.1392
     52 H19        -6.3927    2.7035    3.7309 H         1 <0>         0.1460
@<TRIPOS>BOND
     1    1    2 1
     2    1   35 1
     3    1   36 1
     4    1   37 1
     5    2    3 1
     6    3    8 ar
     7    3    4 ar
     8    4    5 ar
     9    4   38 1
    10    5    6 ar
    11    5   14 1
    12    6    7 ar
    13    6   39 1
    14    7    8 ar
    15    7   40 1
    16    8    9 1
    17    9   10 1
    18   10   11 1
    19   10   41 1
    20   10   42 1
    21   11   12 2
    22   11   13 am
    23   13   43 1
    24   13   44 1
    25   14   15 1
    26   14   21 1
    27   14   16 1
    28   16   17 1
    29   16   45 1
    30   16   46 1
    31   17   18 2
    32   17   19 am
    33   19   20 1
    34   19   47 1
    35   20   24 1
    36   20   21 2
    37   21   22 1
    38   22   23 1
    39   22   28 1
    40   23   24 2
    41   23   48 1
    42   24   25 1
    43   25   26 2
    44   25   27 1
    45   28   33 ar
    46   28   29 ar
    47   29   30 ar
    48   29   49 1
    49   30   31 ar
    50   30   50 1
    51   31   32 ar
    52   31   51 1
    53   32   33 ar
    54   32   34 1
    55   33   52 1
@<TRIPOS>MOLECULE
ZINC40283781
   52    55     0     0     0
SMALL
USER_CHARGES

@<TRIPOS>ATOM
      1 C1         -0.0173    1.4248    0.0099 C.3       1 <0>         0.0249
      2 O1          0.0021   -0.0041    0.0020 O.3       1 <0>        -0.3041
      3 C2         -1.2011   -0.6379    0.0101 C.ar      1 <0>         0.1061
      4 C3         -2.3743    0.0994    0.0195 C.ar      1 <0>        -0.1637
      5 C4         -3.5965   -0.5465    0.0272 C.ar      1 <0>        -0.0914
      6 C5         -3.6519   -1.9279    0.0261 C.ar      1 <0>        -0.0776
      7 C6         -2.4852   -2.6694    0.0172 C.ar      1 <0>        -0.1712
      8 C7         -1.2569   -2.0283    0.0032 C.ar      1 <0>         0.0951
      9 O2         -0.1083   -2.7563   -0.0116 O.3       1 <0>        -0.2771
     10 C8         -0.2420   -4.1790   -0.0180 C.3       1 <0>         0.0361
     11 C9          1.1255   -4.8120   -0.0344 C.2       1 <0>         0.5199
     12 O3          2.1170   -4.1136   -0.0400 O.2       1 <0>        -0.5141
     13 N1          1.2468   -6.1543   -0.0427 N.am      1 <0>        -0.8518
     14 C10        -4.9869   -2.6268    0.0350 C.3       1 <0>         0.0426
     15 H1         -4.8353   -3.7062    0.0327 H         1 <0>         0.0940
     16 C11        -5.7721   -2.2203    1.2848 C.3       1 <0>        -0.1254
     17 C12        -6.3388   -0.8357    1.1546 C.2       1 <0>         0.5165
     18 O4         -6.3793   -0.1216    2.1344 O.2       1 <0>        -0.5443
     19 N2         -6.8048   -0.3613   -0.0227 N.am      1 <0>        -0.6240
     20 C13        -6.6211   -1.1528   -1.1636 C.2       1 <0>         0.1168
     21 C14        -5.7786   -2.2234   -1.1845 C.2       1 <0>        -0.0609
     22 N3         -5.8089   -2.7888   -2.4224 N.pl3     1 <0>        -0.3806
     23 C15        -6.6585   -2.1143   -3.2260 C.2       1 <0>         0.0390
     24 C16        -7.2124   -1.0606   -2.4931 C.2       1 <0>        -0.1947
     25 C17        -8.1859   -0.0693   -2.9621 C.2       1 <0>         0.5481
     26 O5         -8.5986   -0.1141   -4.1137 O.co2     1 <0>        -0.6919
     27 O6         -8.5859    0.8029   -2.2021 O.co2     1 <0>        -0.6913
     28 C18        -5.0632   -3.9116   -2.8083 C.ar      1 <0>         0.1289
     29 C19        -3.6991   -3.9608   -2.5543 C.ar      1 <0>        -0.1005
     30 C20        -2.9662   -5.0676   -2.9352 C.ar      1 <0>        -0.1411
     31 C21        -3.5909   -6.1277   -3.5705 C.ar      1 <0>         0.0937
     32 C22        -4.9513   -6.0803   -3.8251 C.ar      1 <0>        -0.1346
     33 C23        -5.6888   -4.9780   -3.4397 C.ar      1 <0>        -0.0894
     34 F1         -2.8722   -7.2094   -3.9428 F         1 <0>        -0.1384
     35 H2          1.0053    1.8021    0.0021 H         1 <0>         0.0998
     36 H3         -0.5445    1.7859   -0.8732 H         1 <0>         0.0561
     37 H4         -0.5275    1.7763    0.9067 H         1 <0>         0.0557
     38 H5         -2.3338    1.1787    0.0211 H         1 <0>         0.1380
     39 H6         -4.5102    0.0294    0.0345 H         1 <0>         0.1317
     40 H7         -2.5312   -3.7485    0.0167 H         1 <0>         0.1351
     41 H8         -0.7791   -4.4975    0.8754 H         1 <0>         0.0943
     42 H9         -0.7960   -4.4879   -0.9044 H         1 <0>         0.0905
     43 H10         0.4538   -6.7129   -0.0382 H         1 <0>         0.4031
     44 H11         2.1270   -6.5617   -0.0533 H         1 <0>         0.4084
     45 H12        -6.5885   -2.9262    1.4376 H         1 <0>         0.1060
     46 H13        -5.1082   -2.2534    2.1487 H         1 <0>         0.1095
     47 H14        -7.2515    0.4981   -0.0753 H         1 <0>         0.4280
     48 H15        -6.8730   -2.3496   -4.2580 H         1 <0>         0.1772
     49 H16        -3.2114   -3.1338   -2.0596 H         1 <0>         0.1473
     50 H17        -1.9051   -5.1062   -2.7378 H         1 <0>         0.1374
     51 H18        -5.4367   -6.9079   -4.3209 H         1 <0>         0.1435
     52 H19        -6.7506   -4.9435   -3.6341 H         1 <0>         0.1446
@<TRIPOS>BOND
     1    1    2 1
     2    1   35 1
     3    1   36 1
     4    1   37 1
     5    2    3 1
     6    3    8 ar
     7    3    4 ar
     8    4    5 ar
     9    4   38 1
    10    5    6 ar
    11    5   39 1
    12    6    7 ar
    13    6   14 1
    14    7    8 ar
    15    7   40 1
    16    8    9 1
    17    9   10 1
    18   10   11 1
    19   10   41 1
    20   10   42 1
    21   11   12 2
    22   11   13 am
    23   13   43 1
    24   13   44 1
    25   14   15 1
    26   14   21 1
    27   14   16 1
    28   16   17 1
    29   16   45 1
    30   16   46 1
    31   17   18 2
    32   17   19 am
    33   19   20 1
    34   19   47 1
    35   20   24 1
    36   20   21 2
    37   21   22 1
    38   22   23 1
    39   22   28 1
    40   23   24 2
    41   23   48 1
    42   24   25 1
    43   25   26 2
    44   25   27 1
    45   28   33 ar
    46   28   29 ar
    47   29   30 ar
    48   29   49 1
    49   30   31 ar
    50   30   50 1
    51   31   32 ar
    52   31   34 1
    53   32   33 ar
    54   32   51 1
    55   33   52 1
@<TRIPOS>MOLECULE
ZINC33256351
   57    59     0     0     0
SMALL
USER_CHARGES

@<TRIPOS>ATOM
      1 C1         -0.1137    1.5558    0.1442 C.3       1 <0>        -0.1614
      2 C2         -0.0809    0.0263    0.1281 C.3       1 <0>         0.1369
      3 C3          0.6409   -0.4815    1.3780 C.3       1 <0>        -0.1642
      4 N1         -1.4513   -0.4914    0.1114 N.am      1 <0>        -0.7301
      5 C4         -1.7037   -1.7139   -0.3970 C.2       1 <0>         0.5147
      6 O1         -0.7963   -2.3853   -0.8407 O.2       1 <0>        -0.5202
      7 C5         -3.1133   -2.2464   -0.4142 C.3       1 <0>         0.0353
      8 N2         -3.1229   -3.5874   -1.0139 N.3       1 <0>        -0.5196
      9 C6         -2.3902   -4.5447   -0.1746 C.3       1 <0>         0.0375
     10 C7         -2.2676   -5.8800   -0.9163 C.3       1 <0>         0.1135
     11 N3         -3.6128   -6.3130   -1.3243 N.pl3     1 <0>        -0.6128
     12 C8         -4.4608   -5.3565   -2.0518 C.3       1 <0>         0.1217
     13 C9         -4.4970   -4.0418   -1.2654 C.3       1 <0>         0.0382
     14 C10        -4.0698   -7.5910   -1.0309 C.ar      1 <0>         0.4590
     15 C11        -5.4007   -7.9162   -1.3244 C.ar      1 <0>        -0.2152
     16 C12        -5.8704   -9.1914   -1.0359 C.ar      1 <0>         0.0464
     17 C13        -4.9261  -10.1338   -0.4311 C.ar      1 <0>        -0.0413
     18 C14        -5.3062  -11.4383   -0.1060 C.ar      1 <0>        -0.1255
     19 C15        -4.3825  -12.2926    0.4623 C.ar      1 <0>         0.2800
     20 C16        -3.0748  -11.8598    0.7126 C.ar      1 <0>        -0.1734
     21 C17        -2.6850  -10.5948    0.4038 C.ar      1 <0>        -0.0992
     22 C18        -3.6016   -9.6986   -0.1766 C.ar      1 <0>         0.0206
     23 N4         -3.2372   -8.4530   -0.4930 N.ar      1 <0>        -0.4954
     24 N5         -4.7551  -13.5965    0.7900 N.2       1 <0>        -1.0696
     25 S1         -3.6520  -14.6263    1.4719 S.o2      1 <0>         2.5229
     26 O2         -2.6522  -14.7974    0.4768 O.2       1 <0>        -1.0277
     27 O3         -3.3332  -14.0377    2.7254 O.2       1 <0>        -1.0281
     28 C19        -4.5563  -16.1787    1.7225 C.3       1 <0>        -0.6329
     29 C20        -7.2636   -9.5804   -1.3263 C.2       1 <0>         0.5165
     30 O4         -8.0008   -8.8111   -1.9266 O.co2     1 <0>        -0.6638
     31 O5         -7.6813  -10.6721   -0.9666 O.co2     1 <0>        -0.6325
     32 H1          0.9059    1.9410    0.1566 H         1 <0>         0.0730
     33 H2         -0.6280    1.9176   -0.7463 H         1 <0>         0.0621
     34 H3         -0.6425    1.8986    1.0335 H         1 <0>         0.0608
     35 H4          0.4479   -0.3165   -0.7613 H         1 <0>         0.0886
     36 H5          0.6643   -1.5712    1.3665 H         1 <0>         0.0598
     37 H6          1.6605   -0.0963    1.3904 H         1 <0>         0.0660
     38 H7          0.1121   -0.1387    2.2674 H         1 <0>         0.0561
     39 H8         -2.1770    0.0455    0.4662 H         1 <0>         0.3996
     40 H9         -3.4932   -2.3019    0.6059 H         1 <0>         0.0669
     41 H10        -3.7459   -1.5811   -1.0018 H         1 <0>         0.1094
     42 H11        -1.3950   -4.1544    0.0385 H         1 <0>         0.1103
     43 H12        -2.9298   -4.6961    0.7603 H         1 <0>         0.0397
     44 H13        -1.6406   -5.7525   -1.7988 H         1 <0>         0.0947
     45 H14        -1.8273   -6.6268   -0.2556 H         1 <0>         0.0772
     46 H15        -4.0446   -5.1787   -3.0434 H         1 <0>         0.0898
     47 H16        -5.4705   -5.7572   -2.1419 H         1 <0>         0.1106
     48 H17        -5.0073   -4.2003   -0.3153 H         1 <0>         0.0489
     49 H18        -5.0298   -3.2868   -1.8434 H         1 <0>         0.0986
     50 H19        -6.0554   -7.1823   -1.7706 H         1 <0>         0.1705
     51 H20        -6.3142  -11.7755   -0.2973 H         1 <0>         0.1862
     52 H21        -2.3652  -12.5412    1.1582 H         1 <0>         0.1203
     53 H22        -1.6723  -10.2776    0.6041 H         1 <0>         0.1226
     54 H23        -4.9143  -16.5498    0.7622 H         1 <0>         0.1196
     55 H24        -3.8928  -16.9170    2.1729 H         1 <0>         0.1042
     56 H25        -5.4051  -16.0022    2.3831 H         1 <0>         0.1195
     57 H26        -2.3255   -8.1736   -0.3152 H         1 <0>         0.4143
@<TRIPOS>BOND
     1    1    2 1
     2    1   32 1
     3    1   33 1
     4    1   34 1
     5    2    3 1
     6    2    4 1
     7    2   35 1
     8    3   36 1
     9    3   37 1
    10    3   38 1
    11    4    5 am
    12    4   39 1
    13    5    6 2
    14    5    7 1
    15    7    8 1
    16    7   40 1
    17    7   41 1
    18    8   13 1
    19    8    9 1
    20    9   10 1
    21    9   42 1
    22    9   43 1
    23   10   11 1
    24   10   44 1
    25   10   45 1
    26   11   12 1
    27   11   14 1
    28   12   13 1
    29   12   46 1
    30   12   47 1
    31   13   48 1
    32   13   49 1
    33   14   23 ar
    34   14   15 ar
    35   15   16 ar
    36   15   50 1
    37   16   17 ar
    38   16   29 1
    39   17   22 ar
    40   17   18 ar
    41   18   19 ar
    42   18   51 1
    43   19   20 ar
    44   19   24 1
    45   20   21 ar
    46   20   52 1
    47   21   22 ar
    48   21   53 1
    49   22   23 ar
    50   23   57 1
    51   24   25 1
    52   25   26 2
    53   25   27 2
    54   25   28 1
    55   28   54 1
    56   28   55 1
    57   28   56 1
    58   29   30 2
    59   29   31 1
@<TRIPOS>MOLECULE
ZINC15206009
   40    41     0     0     0
SMALL
USER_CHARGES
(4-nitrophenyl) [(2R,3R,5S,6S)-2,3,4,5,6-pentahydroxycyclohexyl] hydrogen phosphate
@<TRIPOS>ATOM
      1 C1          6.4437   -4.8844   -3.9785 C.ar      1 <0>        -0.0365
      2 C2          5.3763   -4.0097   -3.9166 C.ar      1 <0>        -0.1351
      3 C3          5.5996   -2.6410   -3.9536 C.ar      1 <0>         0.2095
      4 C4          6.8945   -2.1543   -4.0580 C.ar      1 <0>        -0.1370
      5 C5          7.9590   -3.0331   -4.1143 C.ar      1 <0>        -0.0359
      6 C6          7.7338   -4.3968   -4.0772 C.ar      1 <0>        -0.0741
      7 N1          8.8756   -5.3362   -4.1428 N.pl3     1 <0>         0.0407
      8 O1          8.6784   -6.5377   -4.1099 O.2       1 <0>        -0.1741
      9 O2         10.0125   -4.9078   -4.2299 O.3       1 <0>        -0.1737
     10 O3          4.5511   -1.7784   -3.8933 O.3       1 <0>        -0.6586
     11 P1          4.1490   -1.3399   -2.3973 P.3       1 <0>         2.1781
     12 O4          3.8899   -2.5477   -1.5820 O.2       1 <0>        -1.0509
     13 O5          2.8225   -0.4288   -2.4434 O.3       1 <0>        -0.7432
     14 C7          2.1536    0.0321   -1.2676 C.3       1 <0>         0.1893
     15 H1          2.6808   -0.3290   -0.3846 H         1 <0>         0.0983
     16 C8          0.7182   -0.4975   -1.2568 C.3       1 <0>         0.1038
     17 H2          0.1910   -0.1364   -2.1398 H         1 <0>         0.0718
     18 C9          0.0021   -0.0041    0.0020 C.3       1 <0>         0.0910
     19 H3         -1.0205   -0.3814    0.0098 H         1 <0>         0.0652
     20 C10        -0.0187    1.5258    0.0104 C.3       1 <0>         0.0357
     21 H4         -0.5459    1.8868   -0.8726 H         1 <0>         0.0728
     22 C11         1.4167    2.0553   -0.0004 C.3       1 <0>         0.0500
     23 H5          1.4019    3.1452    0.0056 H         1 <0>         0.0607
     24 C12         2.1328    1.5619   -1.2592 C.3       1 <0>         0.1027
     25 H6          1.6057    1.9230   -2.1423 H         1 <0>         0.0706
     26 O6          3.4735    2.0566   -1.2694 O.3       1 <0>        -0.5157
     27 O7          2.1079    1.5820    1.1573 O.3       1 <0>        -0.5183
     28 O8         -0.6875    1.9866    1.1861 O.3       1 <0>        -0.5610
     29 O9          0.6932   -0.4774    1.1597 O.3       1 <0>        -0.5217
     30 O10         0.7376   -1.9263   -1.2646 O.3       1 <0>        -0.5191
     31 H7          6.2704   -5.9500   -3.9500 H         1 <0>         0.1557
     32 H8          4.3688   -4.3911   -3.8398 H         1 <0>         0.1545
     33 H9          7.0706   -1.0893   -4.0912 H         1 <0>         0.1575
     34 H10         8.9675   -2.6547   -4.1918 H         1 <0>         0.1562
     35 H11         3.5367    3.0215   -1.2648 H         1 <0>         0.3664
     36 H12         1.7085    1.8573    1.9938 H         1 <0>         0.3692
     37 H13        -0.7381    2.9496    1.2579 H         1 <0>         0.3818
     38 H14         0.2938   -0.2021    1.9962 H         1 <0>         0.3730
     39 H15        -0.1404   -2.3316   -1.2584 H         1 <0>         0.3684
     40 O11         5.3554   -0.4988   -1.7421 O.3       1 <0>        -1.0680
@<TRIPOS>BOND
     1    1    6 ar
     2    1    2 ar
     3    1   31 1
     4    2    3 ar
     5    2   32 1
     6    3    4 ar
     7    3   10 1
     8    4    5 ar
     9    4   33 1
    10    5    6 ar
    11    5   34 1
    12    6    7 1
    13    7    8 2
    14    7    9 1
    15   10   11 1
    16   11   12 2
    17   11   13 1
    18   11   40 1
    19   13   14 1
    20   14   15 1
    21   14   24 1
    22   14   16 1
    23   16   17 1
    24   16   18 1
    25   16   30 1
    26   18   19 1
    27   18   20 1
    28   18   29 1
    29   20   21 1
    30   20   22 1
    31   20   28 1
    32   22   23 1
    33   22   24 1
    34   22   27 1
    35   24   25 1
    36   24   26 1
    37   26   35 1
    38   27   36 1
    39   28   37 1
    40   29   38 1
    41   30   39 1
@<TRIPOS>MOLECULE
ZINC39232907
   38    40     0     0     0
SMALL
USER_CHARGES

@<TRIPOS>ATOM
      1 C1         -0.2568    1.2918   -0.0069 C.ar      1 <0>        -0.1578
      2 C2          0.8068    1.9022   -0.6519 C.ar      1 <0>        -0.0650
      3 C3          2.0499    1.3026   -0.6702 C.ar      1 <0>        -0.1469
      4 C4          2.2421    0.0805   -0.0399 C.ar      1 <0>         0.2272
      5 C5          1.1677   -0.5399    0.6144 C.ar      1 <0>        -0.1938
      6 C6         -0.0846    0.0789    0.6240 C.ar      1 <0>        -0.0639
      7 C7          1.3587   -1.8387    1.2876 C.2       1 <0>         0.5713
      8 O1          2.4693   -2.3284    1.3597 O.2       1 <0>        -0.5445
      9 N1          0.3023   -2.4823    1.8225 N.am      1 <0>        -0.8494
     10 N2          3.4956   -0.5266   -0.0575 N.am      1 <0>        -0.6652
     11 C8          4.6055    0.2232   -0.2075 C.2       1 <0>         0.5150
     12 O2          4.5221    1.4329   -0.2253 O.2       1 <0>        -0.5133
     13 C9          5.9500   -0.4417   -0.3532 C.3       1 <0>        -0.1202
     14 C10         7.0336    0.6273   -0.5074 C.3       1 <0>         0.0941
     15 N3          8.3406   -0.0190   -0.6490 N.2       1 <0>        -0.5929
     16 C11         9.4704    0.7442   -0.8017 C.2       1 <0>         0.4293
     17 N4          9.4631    2.0798   -0.8257 N.2       1 <0>        -0.7037
     18 C12        10.5963    2.7736   -0.9854 C.2       1 <0>         0.4560
     19 N5         11.8079    2.3332   -0.8289 N.2       1 <0>        -0.6354
     20 C13        12.0245    0.9507   -0.4029 C.3       1 <0>         0.1858
     21 H1         12.0825    0.8758    0.6830 H         1 <0>         0.1295
     22 C14        10.8245    0.1783   -0.9508 C.2       1 <0>         0.1691
     23 N6         11.3175   -0.8662   -1.4992 N.2       1 <0>        -0.4958
     24 C15        12.6557   -0.7670   -1.6304 C.2       1 <0>         0.2424
     25 N7         13.1604    0.2908   -1.0424 N.2       1 <0>        -0.4789
     26 Cl1        10.4290    4.4375   -1.4515 Cl        1 <0>        -0.0558
     27 H2         -1.2245    1.7712    0.0053 H         1 <0>         0.1275
     28 H3          0.6622    2.8528   -1.1437 H         1 <0>         0.1306
     29 H4          2.8738    1.7843   -1.1757 H         1 <0>         0.1556
     30 H5         -0.9169   -0.3927    1.1254 H         1 <0>         0.1262
     31 H6         -0.5836   -2.0916    1.7649 H         1 <0>         0.4011
     32 H7          0.4280   -3.3362    2.2651 H         1 <0>         0.4054
     33 H8          3.5698   -1.4890    0.0382 H         1 <0>         0.4248
     34 H9          6.1560   -1.0428    0.5325 H         1 <0>         0.0963
     35 H10         5.9445   -1.0833   -1.2344 H         1 <0>         0.0968
     36 H11         6.8276    1.2283   -1.3931 H         1 <0>         0.0501
     37 H12         7.0391    1.2689    0.3738 H         1 <0>         0.0492
     38 H13        13.2566   -1.4869   -2.1661 H         1 <0>         0.1993
@<TRIPOS>BOND
     1    1    6 ar
     2    1    2 ar
     3    1   27 1
     4    2    3 ar
     5    2   28 1
     6    3    4 ar
     7    3   29 1
     8    4    5 ar
     9    4   10 1
    10    5    6 ar
    11    5    7 1
    12    6   30 1
    13    7    8 2
    14    7    9 am
    15    9   31 1
    16    9   32 1
    17   10   11 am
    18   10   33 1
    19   11   12 2
    20   11   13 1
    21   13   14 1
    22   13   34 1
    23   13   35 1
    24   14   15 1
    25   14   36 1
    26   14   37 1
    27   15   16 1
    28   16   22 1
    29   16   17 2
    30   17   18 1
    31   18   19 2
    32   18   26 1
    33   19   20 1
    34   20   21 1
    35   20   25 1
    36   20   22 1
    37   22   23 2
    38   23   24 1
    39   24   25 2
    40   24   38 1
@<TRIPOS>MOLECULE
ZINC16900820
   35    36     0     0     0
SMALL
USER_CHARGES

@<TRIPOS>ATOM
      1 C1         -0.0221    1.7812    0.0118 C.2       1 <0>        -0.2577
      2 C2          1.3069    2.0517    0.0006 C.2       1 <0>         0.1362
      3 N1          2.1286    1.0194   -0.0128 N.2       1 <0>        -0.4543
      4 C3          1.6719   -0.2137   -0.0151 C.2       1 <0>         0.2027
      5 S1          0.0021   -0.0041    0.0020 S.3       1 <0>         0.1533
      6 N2          2.3951   -1.4051   -0.0288 N.am      1 <0>        -0.4658
      7 C4          3.7334   -1.4402   -0.0365 C.2       1 <0>         0.5133
      8 O1          4.4613   -0.4708   -0.0323 O.2       1 <0>        -0.3991
      9 C5          4.1935   -2.8816   -0.0508 C.3       1 <0>        -0.1239
     10 C6          2.8751   -3.6819   -0.0499 C.3       1 <0>        -0.0862
     11 H1          2.8050   -4.3046    0.8419 H         1 <0>         0.1528
     12 C7          1.8087   -2.6086   -0.0296 C.2       1 <0>         0.5296
     13 O2          0.6129   -2.8070   -0.0185 O.2       1 <0>        -0.4433
     14 S2          2.7439   -4.6975   -1.5473 S.3       1 <0>        -0.2141
     15 C8          1.2287   -5.6618   -1.2920 C.3       1 <0>        -0.1087
     16 C9          0.9956   -6.5740   -2.4980 C.3       1 <0>        -0.0287
     17 H2          0.9816   -5.9755   -3.4090 H         1 <0>         0.1439
     18 C10        -0.3247   -7.2839   -2.3431 C.2       1 <0>         0.4963
     19 O3         -1.3675   -6.6596   -2.4395 O.co2     1 <0>        -0.6225
     20 O4         -0.3500   -8.4825   -2.1213 O.co2     1 <0>        -0.6679
     21 N3          2.0775   -7.5643   -2.5793 N.4       1 <0>        -0.6125
     22 C11         1.8220    3.4679    0.0028 C.3       1 <0>        -0.1250
     23 C12         2.7706    3.6556    1.1587 C.2       1 <0>         0.5009
     24 O5          3.0064    2.7255    1.9110 O.co2     1 <0>        -0.6771
     25 O6          3.3022    4.7374    1.3416 O.co2     1 <0>        -0.7057
     26 H3         -0.8630    2.4588    0.0273 H         1 <0>         0.1971
     27 H4          4.7692   -3.0916   -0.9522 H         1 <0>         0.1336
     28 H5          4.7792   -3.1062    0.8407 H         1 <0>         0.1422
     29 H6          1.3313   -6.2682   -0.3922 H         1 <0>         0.1068
     30 H7          0.3819   -4.9848   -1.1794 H         1 <0>         0.1422
     31 H8          2.9615   -7.0890   -2.6831 H         1 <0>         0.4172
     32 H9          2.0904   -8.1183   -1.7361 H         1 <0>         0.4325
     33 H10         2.3455    3.6655   -0.9326 H         1 <0>         0.0787
     34 H11         0.9851    4.1588    0.1038 H         1 <0>         0.0793
     35 H12         1.9237   -8.1659   -3.3747 H         1 <0>         0.4342
@<TRIPOS>BOND
     1    1    5 1
     2    1    2 2
     3    1   26 1
     4    2    3 1
     5    2   22 1
     6    3    4 2
     7    4    5 1
     8    4    6 1
     9    6   12 am
    10    6    7 am
    11    7    8 2
    12    7    9 1
    13    9   10 1
    14    9   27 1
    15    9   28 1
    16   10   11 1
    17   10   12 1
    18   10   14 1
    19   12   13 2
    20   14   15 1
    21   15   16 1
    22   15   29 1
    23   15   30 1
    24   16   17 1
    25   16   18 1
    26   16   21 1
    27   18   19 2
    28   18   20 1
    29   21   31 1
    30   21   32 1
    31   21   35 1
    32   22   23 1
    33   22   33 1
    34   22   34 1
    35   23   24 2
    36   23   25 1
@<TRIPOS>MOLECULE
ZINC44889807
   32    34     0     0     0
SMALL
USER_CHARGES

@<TRIPOS>ATOM
      1 C1         -0.0169    1.3923    0.0097 C.2       1 <0>        -0.4415
      2 C2          1.1886    2.0796    0.0019 C.2       1 <0>         0.3526
      3 C3          2.3781    1.3499   -0.0134 C.2       1 <0>        -0.2300
      4 C4          2.3838   -0.0419   -0.0209 C.2       1 <0>         0.1814
      5 C5          3.7208   -0.6123   -0.0368 C.2       1 <0>        -0.1736
      6 C6          4.7938    0.2725   -0.0423 C.2       1 <0>        -0.2300
      7 S1          4.0924    1.7963   -0.0274 S.3       1 <0>         0.2538
      8 S2          6.5114   -0.1204   -0.0608 S.3       1 <0>         0.0839
      9 C7          7.3317    1.4975   -0.0599 C.3       1 <0>        -0.1728
     10 C8          8.8260    1.3031   -0.0753 C.2       1 <0>         0.5348
     11 O1          9.2918    0.1833   -0.0857 O.2       1 <0>        -0.4420
     12 N1          9.6449    2.3736   -0.0773 N.am      1 <0>        -0.6104
     13 C9         11.0239    2.1941   -0.0915 C.2       1 <0>         0.2444
     14 N2         11.7163    1.0722   -0.1100 N.2       1 <0>        -0.3052
     15 N3         12.9798    1.0675   -0.1212 N.2       1 <0>        -0.2308
     16 C10        13.6254    2.2165   -0.1142 C.2       1 <0>         0.0041
     17 S3         12.2471    3.3544   -0.0969 S.3       1 <0>         0.0810
     18 C11         3.9295   -2.0611   -0.0461 C.2       1 <0>         0.5853
     19 O2          4.0061   -2.6583   -1.1042 O.2       1 <0>        -0.5284
     20 N4          4.0370   -2.7340    1.1168 N.am      1 <0>        -0.8439
     21 N5          1.1548   -0.6891   -0.0131 N.am      1 <0>        -0.6213
     22 H1          1.1298   -1.6587   -0.0181 H         1 <0>         0.3932
     23 C12         0.0021   -0.0041    0.0020 C.2       1 <0>         0.5377
     24 O3         -1.0554   -0.6154    0.0088 O.2       1 <0>        -0.6119
     25 O4          1.2103    3.4344    0.0085 O.3       1 <0>        -0.6868
     26 H2         -0.9543    1.9284    0.0260 H         1 <0>         0.1283
     27 H3          7.0292    2.0587   -0.9441 H         1 <0>         0.1344
     28 H4          7.0462    2.0491    0.8358 H         1 <0>         0.1341
     29 H5          9.2724    3.2691   -0.0690 H         1 <0>         0.4333
     30 H6         14.6871    2.4146   -0.1214 H         1 <0>         0.2398
     31 H7          3.9760   -2.2582    1.9598 H         1 <0>         0.4042
     32 H8          4.1753   -3.6940    1.1106 H         1 <0>         0.4025
@<TRIPOS>BOND
     1    1   23 1
     2    1    2 2
     3    1   26 1
     4    2    3 1
     5    2   25 1
     6    3    7 1
     7    3    4 2
     8    4    5 1
     9    4   21 1
    10    5    6 2
    11    5   18 1
    12    6    7 1
    13    6    8 1
    14    8    9 1
    15    9   10 1
    16    9   27 1
    17    9   28 1
    18   10   11 2
    19   10   12 am
    20   12   13 1
    21   12   29 1
    22   13   17 1
    23   13   14 2
    24   14   15 1
    25   15   16 2
    26   16   17 1
    27   16   30 1
    28   18   19 2
    29   18   20 am
    30   20   31 1
    31   20   32 1
    32   21   22 1
    33   21   23 am
    34   23   24 2
@<TRIPOS>MOLECULE
ZINC66636624
   40    41     0     0     0
SMALL
USER_CHARGES

@<TRIPOS>ATOM
      1 C1         -0.0187    1.5258    0.0104 C.3       1 <0>        -0.1718
      2 C2          0.0021   -0.0041    0.0020 C.3       1 <0>         0.1050
      3 N1          0.6878   -0.4765   -1.2033 N.pl3     1 <0>        -0.4854
      4 C3          0.0955   -0.7407   -2.4137 C.2       1 <0>         0.2693
      5 N2          1.0038   -1.1382   -3.2454 N.2       1 <0>        -0.2637
      6 N3          2.2361   -1.1409   -2.5772 N.pl3     1 <0>        -0.4668
      7 C4          2.0089   -0.7206   -1.3152 C.2       1 <0>         0.4751
      8 S1          3.1818   -0.5356   -0.0819 S.2       1 <0>        -0.5807
      9 C5         -1.3720   -0.5925   -2.7227 C.3       1 <0>         0.2038
     10 N4         -1.6178   -0.9684   -4.1172 N.am      1 <0>        -0.7321
     11 C6         -2.8671   -0.9136   -4.6197 C.2       1 <0>         0.5758
     12 O1         -3.7903   -0.5523   -3.9157 O.2       1 <0>        -0.5282
     13 C7         -3.1146   -1.2922   -6.0241 C.ar      1 <0>        -0.1291
     14 C8         -2.0573   -1.7133   -6.8343 C.ar      1 <0>        -0.1391
     15 C9         -2.2972   -2.0673   -8.1506 C.ar      1 <0>         0.2699
     16 C10        -3.5875   -2.0044   -8.6670 C.ar      1 <0>        -0.2097
     17 C11        -4.6365   -1.5892   -7.8721 C.ar      1 <0>        -0.0990
     18 C12        -4.4119   -1.2366   -6.5498 C.ar      1 <0>         0.0549
     19 O2         -5.4460   -0.8338   -5.7681 O.3       1 <0>        -0.4817
     20 N5         -1.2393   -2.4891   -8.9642 N.2       1 <0>        -1.0972
     21 S2         -1.5243   -2.9130  -10.5395 S.o2      1 <0>         2.5262
     22 O3         -2.3693   -4.0528  -10.4610 O.2       1 <0>        -1.0290
     23 O4         -1.9763   -1.7175  -11.1606 O.2       1 <0>        -1.0297
     24 C13         0.0997   -3.3833  -11.1968 C.3       1 <0>        -0.6362
     25 H1          1.0039    1.9031    0.0027 H         1 <0>         0.0725
     26 H2         -0.5459    1.8868   -0.8726 H         1 <0>         0.0630
     27 H3         -0.5289    1.8773    0.9072 H         1 <0>         0.0873
     28 H4          0.5293   -0.3651    0.8851 H         1 <0>         0.1184
     29 H5         -1.0205   -0.3814    0.0098 H         1 <0>         0.1060
     30 H6          3.0935   -1.3943   -2.9533 H         1 <0>         0.4706
     31 H7         -1.9493   -1.2416   -2.0643 H         1 <0>         0.1078
     32 H8         -1.6733    0.4434   -2.5671 H         1 <0>         0.1078
     33 H9         -0.8813   -1.2566   -4.6788 H         1 <0>         0.4160
     34 H10        -1.0552   -1.7622   -6.4345 H         1 <0>         0.1195
     35 H11        -3.7690   -2.2814   -9.6949 H         1 <0>         0.1107
     36 H12        -5.6356   -1.5428   -8.2797 H         1 <0>         0.1171
     37 H13        -5.6087    0.1191   -5.7912 H         1 <0>         0.3694
     38 H14         0.4971   -4.2184  -10.6201 H         1 <0>         0.1157
     39 H15        -0.0027   -3.6788  -12.2409 H         1 <0>         0.1021
     40 H16         0.7804   -2.5351  -11.1244 H         1 <0>         0.1156
@<TRIPOS>BOND
     1    1    2 1
     2    1   25 1
     3    1   26 1
     4    1   27 1
     5    2   28 1
     6    2   29 1
     7    2    3 1
     8    3    7 1
     9    3    4 1
    10    4    9 1
    11    4    5 2
    12    5    6 1
    13    6    7 1
    14    6   30 1
    15    7    8 2
    16    9   10 1
    17    9   31 1
    18    9   32 1
    19   10   11 am
    20   10   33 1
    21   11   12 2
    22   11   13 1
    23   13   18 ar
    24   13   14 ar
    25   14   15 ar
    26   14   34 1
    27   15   16 ar
    28   15   20 1
    29   16   17 ar
    30   16   35 1
    31   17   18 ar
    32   17   36 1
    33   18   19 1
    34   19   37 1
    35   20   21 1
    36   21   22 2
    37   21   23 2
    38   21   24 1
    39   24   38 1
    40   24   39 1
    41   24   40 1
@<TRIPOS>MOLECULE
ZINC06979546
   43    46     0     0     0
SMALL
USER_CHARGES
6-[[5-(2-methyl-3-furyl)-4-phenyl-1,2,4-triazol-3-yl]sulfanylmethyl]-1,3,5-triazine-2,4-diamine
@<TRIPOS>ATOM
      1 C1         -7.6293    5.5732    0.1544 C.3       1 <0>        -0.0836
      2 C2         -7.4844    5.4817    1.6516 C.2       1 <0>         0.0693
      3 C3         -6.4509    4.8982    2.3168 C.2       1 <0>        -0.1407
      4 C4         -6.7523    5.0641    3.7444 C.2       1 <0>        -0.1989
      5 C5         -7.9242    5.7177    3.8024 C.2       1 <0>        -0.0271
      6 O1         -8.3534    5.9591    2.5544 O.3       1 <0>        -0.1725
      7 C6         -5.2666    4.2394    1.7250 C.2       1 <0>         0.2822
      8 N1         -5.0095    4.0990    0.4454 N.2       1 <0>        -0.2730
      9 N2         -3.8958    3.4785    0.2853 N.2       1 <0>        -0.2794
     10 C7         -3.3706    3.1831    1.4518 C.2       1 <0>         0.1603
     11 N3         -4.2275    3.6517    2.4121 N.pl3     1 <0>        -0.4150
     12 C8         -4.0770    3.5562    3.8026 C.ar      1 <0>         0.1045
     13 C9         -4.9751    2.8060    4.5495 C.ar      1 <0>        -0.0963
     14 C10        -4.8214    2.7099    5.9188 C.ar      1 <0>        -0.1085
     15 C11        -3.7805    3.3685    6.5470 C.ar      1 <0>        -0.0999
     16 C12        -2.8874    4.1208    5.8063 C.ar      1 <0>        -0.1044
     17 C13        -3.0329    4.2164    4.4361 C.ar      1 <0>        -0.0973
     18 S1         -1.8511    2.3354    1.7300 S.3       1 <0>         0.0578
     19 C14        -1.3322    2.0509    0.0195 C.3       1 <0>        -0.0457
     20 C15        -0.0158    1.3173    0.0093 C.ar      1 <0>         0.4437
     21 N4          1.1174    1.9970    0.0021 N.ar      1 <0>        -0.6226
     22 C16         2.2820    1.3526   -0.0124 C.ar      1 <0>         0.6346
     23 N5          2.3041    0.0243   -0.0198 N.ar      1 <0>        -0.6517
     24 C17         1.1627   -0.6556   -0.0125 C.ar      1 <0>         0.6346
     25 N6          0.0021   -0.0041    0.0020 N.ar      1 <0>        -0.6225
     26 N7          1.1804   -2.0354   -0.0206 N.pl3     1 <0>        -0.8025
     27 N8          3.4648    2.0633   -0.0203 N.pl3     1 <0>        -0.8026
     28 H1         -8.1665    4.6987   -0.2128 H         1 <0>         0.0903
     29 H2         -8.1850    6.4751   -0.1023 H         1 <0>         0.0807
     30 H3         -6.6415    5.6121   -0.3046 H         1 <0>         0.1079
     31 H4         -6.1534    4.7287    4.5782 H         1 <0>         0.1562
     32 H5         -8.4383    6.0034    4.7082 H         1 <0>         0.2100
     33 H6         -5.7910    2.2950    4.0599 H         1 <0>         0.1316
     34 H7         -5.5174    2.1231    6.4999 H         1 <0>         0.1374
     35 H8         -3.6645    3.2950    7.6182 H         1 <0>         0.1345
     36 H9         -2.0755    4.6344    6.2997 H         1 <0>         0.1372
     37 H10        -2.3348    4.8038    3.8580 H         1 <0>         0.1330
     38 H11        -1.2187    3.0080   -0.4897 H         1 <0>         0.1304
     39 H12        -2.0852    1.4532   -0.4941 H         1 <0>         0.1303
     40 H13         0.3467   -2.5312   -0.0156 H         1 <0>         0.4204
     41 H14         2.0266   -2.5096   -0.0312 H         1 <0>         0.4185
     42 H15         4.3132    1.5931   -0.0313 H         1 <0>         0.4185
     43 H16         3.4480    3.0332   -0.0150 H         1 <0>         0.4203
@<TRIPOS>BOND
     1    1    2 1
     2    1   28 1
     3    1   29 1
     4    1   30 1
     5    2    6 1
     6    2    3 2
     7    3    4 1
     8    3    7 1
     9    4    5 2
    10    4   31 1
    11    5    6 1
    12    5   32 1
    13    7   11 1
    14    7    8 2
    15    8    9 1
    16    9   10 2
    17   10   11 1
    18   10   18 1
    19   11   12 1
    20   12   17 ar
    21   12   13 ar
    22   13   14 ar
    23   13   33 1
    24   14   15 ar
    25   14   34 1
    26   15   16 ar
    27   15   35 1
    28   16   17 ar
    29   16   36 1
    30   17   37 1
    31   18   19 1
    32   19   20 1
    33   19   38 1
    34   19   39 1
    35   20   25 ar
    36   20   21 ar
    37   21   22 ar
    38   22   23 ar
    39   22   27 1
    40   23   24 ar
    41   24   25 ar
    42   24   26 1
    43   26   40 1
    44   26   41 1
    45   27   42 1
    46   27   43 1
@<TRIPOS>MOLECULE
ZINC32770812
   42    44     0     0     0
SMALL
USER_CHARGES
(3S)-2-phenyl-5-[(pyridine-3-carbonylamino)carbamoyl]-3,4-dihydropyrazole-3-carboxamide
@<TRIPOS>ATOM
      1 C1          1.2080   -0.6809   -0.0136 C.ar      1 <0>        -0.1524
      2 C2          0.0021   -0.0041    0.0020 C.ar      1 <0>        -0.0825
      3 C3         -0.0167    1.3766    0.0096 C.ar      1 <0>        -0.1513
      4 C4          1.1783    2.0861    0.0020 C.ar      1 <0>         0.2207
      5 C5          2.3882    1.4027   -0.0123 C.ar      1 <0>        -0.1612
      6 C6          2.3992    0.0219   -0.0207 C.ar      1 <0>        -0.0806
      7 N1          1.1632    3.4820    0.0092 N.pl3     1 <0>        -0.4324
      8 C7          2.3511    4.3501    0.0083 C.3       1 <0>         0.0893
      9 H1          3.0044    4.1305   -0.8490 H         1 <0>         0.1176
     10 C8          1.7615    5.7742    0.0149 C.3       1 <0>        -0.0876
     11 C9          0.2662    5.5505    0.0284 C.2       1 <0>         0.0268
     12 N2          0.0208    4.2796    0.0244 N.2       1 <0>        -0.1616
     13 C10        -0.7460    6.6065    0.0443 C.2       1 <0>         0.6053
     14 O1         -0.4062    7.7753    0.0473 O.2       1 <0>        -0.5296
     15 N3         -2.0549    6.2852    0.0558 N.am      1 <0>        -0.5131
     16 N4         -3.0243    7.2965    0.0711 N.am      1 <0>        -0.5258
     17 C11        -4.3332    6.9752    0.0825 C.2       1 <0>         0.5700
     18 O2         -4.6725    5.8080    0.0796 O.2       1 <0>        -0.5330
     19 C12        -5.3562    8.0424    0.0987 C.ar      1 <0>        -0.1814
     20 C13        -6.7192    7.7219    0.1049 C.ar      1 <0>        -0.0110
     21 C14        -7.6362    8.7578    0.1261 C.ar      1 <0>        -0.1759
     22 C15        -7.1818   10.0645    0.1282 C.ar      1 <0>         0.1282
     23 N5         -5.8909   10.3366    0.1166 N.ar      1 <0>        -0.4841
     24 C16        -4.9798    9.3859    0.1022 C.ar      1 <0>         0.1378
     25 C17         3.1822    4.1122    1.2427 C.2       1 <0>         0.5000
     26 O3          2.6916    3.5659    2.2080 O.2       1 <0>        -0.5231
     27 N6          4.4706    4.5064    1.2740 N.am      1 <0>        -0.8728
     28 H2          1.2197   -1.7608   -0.0199 H         1 <0>         0.1248
     29 H3         -0.9262   -0.5561    0.0079 H         1 <0>         0.1286
     30 H4         -0.9588    1.9045    0.0170 H         1 <0>         0.1321
     31 H5          3.3187    1.9508   -0.0179 H         1 <0>         0.1148
     32 H6          3.3391   -0.5099   -0.0326 H         1 <0>         0.1270
     33 H7          2.1086    6.3106    0.9104 H         1 <0>         0.1117
     34 H8          2.0921    6.3121   -0.8858 H         1 <0>         0.1214
     35 H9         -2.3620    5.2289    0.0532 H         1 <0>         0.4695
     36 H10        -2.7172    8.3528    0.0738 H         1 <0>         0.4583
     37 H11        -7.0463    6.6927    0.0980 H         1 <0>         0.1509
     38 H12        -8.6957    8.5485    0.1360 H         1 <0>         0.1477
     39 H13        -7.8954   10.8751    0.1398 H         1 <0>         0.1657
     40 H14        -3.9322    9.6484    0.0934 H         1 <0>         0.1587
     41 H15         5.0772    4.3327    2.1751 H         1 <0>         0.4296
     42 H16         4.9156    5.0018    0.3985 H         1 <0>         0.4229
@<TRIPOS>BOND
     1    1    6 ar
     2    1    2 ar
     3    1   28 1
     4    2    3 ar
     5    2   29 1
     6    3    4 ar
     7    3   30 1
     8    4    5 ar
     9    4    7 1
    10    5    6 ar
    11    5   31 1
    12    6   32 1
    13    7   12 1
    14    7    8 1
    15    8    9 1
    16    8   10 1
    17    8   25 1
    18   10   11 1
    19   10   33 1
    20   10   34 1
    21   11   12 2
    22   11   13 1
    23   13   14 2
    24   13   15 am
    25   15   16 1
    26   15   35 1
    27   16   17 am
    28   16   36 1
    29   17   18 2
    30   17   19 1
    31   19   24 ar
    32   19   20 ar
    33   20   21 ar
    34   20   37 1
    35   21   22 ar
    36   21   38 1
    37   22   23 ar
    38   22   39 1
    39   23   24 ar
    40   24   40 1
    41   25   26 2
    42   25   27 am
    43   27   41 1
    44   27   42 1
@<TRIPOS>MOLECULE
ZINC20758747
   54    58     0     0     0
SMALL
USER_CHARGES

@<TRIPOS>ATOM
      1 C1         -0.0167    1.3794    0.0096 C.ar      1 <0>        -0.1390
      2 C2          1.1736    2.0836    0.0020 C.ar      1 <0>        -0.0731
      3 C3          2.3793    1.4140   -0.0136 C.ar      1 <0>        -0.1416
      4 C4          2.4074    0.0213   -0.0214 C.ar      1 <0>         0.1442
      5 C5          1.2035   -0.6767   -0.0131 C.ar      1 <0>        -0.1323
      6 C6          0.0021   -0.0041    0.0020 C.ar      1 <0>        -0.0141
      7 C7          1.5732   -2.1330   -0.0242 C.3       1 <0>         0.1224
      8 C8          0.9897   -2.8511   -1.2474 C.3       1 <0>        -0.1056
      9 H1          1.6819   -2.8758   -2.0891 H         1 <0>         0.1382
     10 C9          0.6190   -4.2684   -0.7287 C.3       1 <0>        -0.1214
     11 H2          1.0895   -5.0654   -1.3045 H         1 <0>         0.1419
     12 C10         1.0497   -4.2741    0.7530 C.3       1 <0>         0.0761
     13 H3          2.0466   -4.7025    0.8565 H         1 <0>         0.0892
     14 N1          1.0340   -2.8359    1.1545 N.3       1 <0>        -0.6132
     15 C11         0.0437   -5.0597    1.5967 C.3       1 <0>        -0.0960
     16 C12         0.5526   -5.1587    3.0362 C.3       1 <0>        -0.1419
     17 C13        -0.4383   -5.9325    3.8672 C.2       1 <0>         0.5147
     18 O1         -1.4517   -6.3624    3.3582 O.2       1 <0>        -0.5312
     19 N2         -0.1983   -6.1467    5.1760 N.am      1 <0>        -0.8612
     20 C14        -0.8892   -4.2925   -0.8266 C.2       1 <0>         0.5444
     21 O2         -1.5972   -5.2226   -0.5053 O.2       1 <0>        -0.4466
     22 N3         -1.3213   -3.1273   -1.3224 N.am      1 <0>        -0.5641
     23 C15        -0.3442   -2.2358   -1.6075 C.2       1 <0>         0.5432
     24 O3         -0.5016   -1.1270   -2.0716 O.2       1 <0>        -0.4567
     25 C16        -2.7401   -2.8388   -1.5460 C.3       1 <0>         0.1007
     26 C17        -3.3368   -2.2070   -0.2868 C.3       1 <0>         0.0655
     27 H4         -2.8099   -1.2850   -0.0408 H         1 <0>         0.0733
     28 C18        -4.8469   -1.9257   -0.4900 C.3       1 <0>        -0.1484
     29 C19        -5.3486   -1.9334    0.9798 C.3       1 <0>        -0.1542
     30 C20        -4.4404   -2.9989    1.6304 C.3       1 <0>         0.0530
     31 O4         -3.2694   -3.1284    0.8132 O.3       1 <0>        -0.3597
     32 C21         3.0770   -2.1548   -0.0388 C.2       1 <0>         0.5129
     33 O5          3.7869   -3.1381   -0.0498 O.2       1 <0>        -0.4848
     34 N4          3.4824   -0.8701   -0.0371 N.am      1 <0>        -0.6556
     35 H5         -0.9584    1.9079    0.0259 H         1 <0>         0.1293
     36 H6          1.1588    3.1635    0.0080 H         1 <0>         0.1324
     37 H7          3.3045    1.9712   -0.0201 H         1 <0>         0.1275
     38 H8         -0.9259   -0.5566    0.0080 H         1 <0>         0.1220
     39 H9          1.6173   -2.6846    1.9638 H         1 <0>         0.3505
     40 H10        -0.9183   -4.5472    1.5858 H         1 <0>         0.0962
     41 H11        -0.0736   -6.0613    1.1831 H         1 <0>         0.0883
     42 H12         1.5145   -5.6712    3.0471 H         1 <0>         0.0914
     43 H13         0.6698   -4.1571    3.4498 H         1 <0>         0.0931
     44 H14         0.6123   -5.8029    5.5831 H         1 <0>         0.3999
     45 H15        -0.8360   -6.6448    5.7108 H         1 <0>         0.4005
     46 H16        -2.8429   -2.1480   -2.3828 H         1 <0>         0.1056
     47 H17        -3.2679   -3.7652   -1.7727 H         1 <0>         0.1018
     48 H18        -5.0062   -0.9525   -0.9544 H         1 <0>         0.0865
     49 H19        -5.3194   -2.7180   -1.0706 H         1 <0>         0.0830
     50 H20        -5.1991   -0.9595    1.4458 H         1 <0>         0.0767
     51 H21        -6.3955   -2.2326    1.0307 H         1 <0>         0.0836
     52 H22        -4.1563   -2.6802    2.6333 H         1 <0>         0.0661
     53 H23        -4.9658   -3.9527    1.6791 H         1 <0>         0.0702
     54 H24         4.4128   -0.5960   -0.0460 H         1 <0>         0.4164
@<TRIPOS>BOND
     1    1    6 ar
     2    1    2 ar
     3    1   35 1
     4    2    3 ar
     5    2   36 1
     6    3    4 ar
     7    3   37 1
     8    4   34 1
     9    4    5 ar
    10    5    6 ar
    11    5    7 1
    12    6   38 1
    13    7   14 1
    14    7    8 1
    15    7   32 1
    16    8    9 1
    17    8   23 1
    18    8   10 1
    19   10   11 1
    20   10   12 1
    21   10   20 1
    22   12   13 1
    23   12   14 1
    24   12   15 1
    25   14   39 1
    26   15   16 1
    27   15   40 1
    28   15   41 1
    29   16   17 1
    30   16   42 1
    31   16   43 1
    32   17   18 2
    33   17   19 am
    34   19   44 1
    35   19   45 1
    36   20   21 2
    37   20   22 am
    38   22   23 am
    39   22   25 1
    40   23   24 2
    41   25   26 1
    42   25   46 1
    43   25   47 1
    44   26   27 1
    45   26   31 1
    46   26   28 1
    47   28   29 1
    48   28   48 1
    49   28   49 1
    50   29   30 1
    51   29   50 1
    52   29   51 1
    53   30   31 1
    54   30   52 1
    55   30   53 1
    56   32   33 2
    57   32   34 am
    58   34   54 1
@<TRIPOS>MOLECULE
ZINC63282412
   44    45     0     0     0
SMALL
USER_CHARGES

@<TRIPOS>ATOM
      1 C1         -0.0178    1.4608    0.0101 C.3       1 <0>         0.0844
      2 N1          0.0021   -0.0041    0.0020 N.am      1 <0>        -0.7358
      3 C2         -1.1558   -0.6938    0.0094 C.2       1 <0>         0.5144
      4 O1         -2.2142   -0.1017    0.0227 O.2       1 <0>        -0.5345
      5 C3         -1.1354   -2.2006    0.0011 C.3       1 <0>        -0.1102
      6 C4         -0.3954   -2.7074    1.2406 C.3       1 <0>        -0.1066
      7 C5         -0.3746   -4.2373    1.2322 C.3       1 <0>        -0.1277
      8 C6         -1.8100   -4.7669    1.2431 C.3       1 <0>         0.1353
      9 C7         -2.5500   -4.2600    0.0035 C.3       1 <0>        -0.1375
     10 C8         -2.5708   -2.7302    0.0119 C.3       1 <0>        -0.0975
     11 N2         -1.7902   -6.2317    1.2350 N.pl3     1 <0>        -0.7144
     12 C9         -2.8719   -6.9477    1.7527 C.ar      1 <0>         0.3518
     13 C10        -3.9701   -6.2722    2.2705 C.ar      1 <0>        -0.2068
     14 C11        -5.0381   -6.9831    2.7811 C.ar      1 <0>         0.0399
     15 C12        -5.0154   -8.3660    2.7775 C.ar      1 <0>        -0.1252
     16 C13        -3.9239   -9.0413    2.2634 C.ar      1 <0>         0.0968
     17 C14        -2.8547   -8.3364    1.7459 C.ar      1 <0>        -0.7589
     18 S1         -1.4674   -9.1981    1.0843 S.o2      1 <0>         2.7046
     19 O2         -0.3108   -8.6143    1.6679 O.2       1 <0>        -0.9557
     20 O3         -1.7597  -10.5843    1.1952 O.2       1 <0>        -0.9468
     21 N3         -1.4049   -8.8556   -0.5347 N.pl3     1 <0>        -1.2492
     22 N4         -6.1619   -9.1247    3.3256 N.pl3     1 <0>         0.0422
     23 O4         -7.1169   -8.5355    3.7758 O.2       1 <0>        -0.1629
     24 O5         -6.1436  -10.3335    3.3232 O.3       1 <0>        -0.1612
     25 H1          1.0048    1.8381    0.0023 H         1 <0>         0.0767
     26 H2         -0.5450    1.8219   -0.8730 H         1 <0>         0.0607
     27 H3         -0.5280    1.8123    0.9069 H         1 <0>         0.0609
     28 H4          0.8486   -0.4776   -0.0086 H         1 <0>         0.4021
     29 H5         -0.6252   -2.5521   -0.8957 H         1 <0>         0.1013
     30 H6          0.6272   -2.3302    1.2329 H         1 <0>         0.0777
     31 H7         -0.9056   -2.3559    2.1374 H         1 <0>         0.0754
     32 H8          0.1355   -4.5888    0.3354 H         1 <0>         0.0771
     33 H9          0.1525   -4.5984    2.1153 H         1 <0>         0.0831
     34 H10        -2.3202   -4.4153    2.1398 H         1 <0>         0.0951
     35 H11        -2.0398   -4.6115   -0.8933 H         1 <0>         0.0742
     36 H12        -3.5726   -4.6373    0.0113 H         1 <0>         0.0758
     37 H13        -3.0810   -2.3787    0.9087 H         1 <0>         0.0755
     38 H14        -3.0980   -2.3691   -0.8711 H         1 <0>         0.0793
     39 H15        -1.0257   -6.7044    0.8701 H         1 <0>         0.4091
     40 H16        -3.9883   -5.1924    2.2739 H         1 <0>         0.1566
     41 H17        -5.8919   -6.4587    3.1840 H         1 <0>         0.1619
     42 H18        -3.9091  -10.1212    2.2628 H         1 <0>         0.1733
     43 H19        -0.5511   -8.8420   -0.9949 H         1 <0>         0.4248
     44 H20        -2.2220   -8.6685   -1.0228 H         1 <0>         0.4207
@<TRIPOS>BOND
     1    1    2 1
     2    1   25 1
     3    1   26 1
     4    1   27 1
     5    2    3 am
     6    2   28 1
     7    3    4 2
     8    3    5 1
     9    5   10 1
    10    5    6 1
    11    5   29 1
    12    6    7 1
    13    6   30 1
    14    6   31 1
    15    7    8 1
    16    7   32 1
    17    7   33 1
    18    8    9 1
    19    8   11 1
    20    8   34 1
    21    9   10 1
    22    9   35 1
    23    9   36 1
    24   10   37 1
    25   10   38 1
    26   11   12 1
    27   11   39 1
    28   12   17 ar
    29   12   13 ar
    30   13   14 ar
    31   13   40 1
    32   14   15 ar
    33   14   41 1
    34   15   16 ar
    35   15   22 1
    36   16   17 ar
    37   16   42 1
    38   17   18 1
    39   18   19 2
    40   18   20 2
    41   18   21 1
    42   21   43 1
    43   21   44 1
    44   22   23 2
    45   22   24 1
@<TRIPOS>MOLECULE
ZINC66375589
   46    47     0     0     0
SMALL
USER_CHARGES

@<TRIPOS>ATOM
      1 C1          0.0061    1.5406   -0.0622 C.3       1 <0>        -0.1542
      2 C2          0.0223    0.0107   -0.0596 C.3       1 <0>        -0.1191
      3 C3         -1.4147   -0.5146   -0.0487 C.3       1 <0>         0.1343
      4 C4         -1.4306   -2.0267   -0.1541 C.2       1 <0>         0.5314
      5 O1         -0.9495   -2.8202    0.6261 O.2       1 <0>        -0.4449
      6 N1         -2.0915   -2.3054   -1.2951 N.am      1 <0>        -0.3769
      7 C5         -2.4911   -1.1912   -1.9187 C.2       1 <0>         0.7077
      8 O2         -3.1065   -1.1873   -2.9667 O.2       1 <0>        -0.5234
      9 N2         -2.1361   -0.0757   -1.2557 N.am      1 <0>        -0.7094
     10 N3         -2.3298   -3.6017   -1.7699 N.am      1 <0>        -0.5014
     11 C6         -3.5607   -4.1412   -1.6676 C.2       1 <0>         0.5197
     12 O3         -4.4619   -3.5044   -1.1644 O.2       1 <0>        -0.5034
     13 C7         -3.8171   -5.5356   -2.1784 C.3       1 <0>         0.1197
     14 N4         -5.2210   -5.8880   -1.9525 N.pl3     1 <0>        -0.7266
     15 C8         -5.6998   -7.1429   -2.3464 C.ar      1 <0>         0.2065
     16 C9         -4.8438   -8.0557   -2.9457 C.ar      1 <0>        -0.1672
     17 C10        -5.3207   -9.2989   -3.3348 C.ar      1 <0>         0.1618
     18 C11        -6.6551   -9.6278   -3.1235 C.ar      1 <0>         0.0377
     19 C12        -7.5069   -8.7164   -2.5259 C.ar      1 <0>        -0.1150
     20 C13        -7.0322   -7.4779   -2.1323 C.ar      1 <0>         0.0377
     21 F1         -7.8650   -6.5915   -1.5441 F         1 <0>        -0.1317
     22 F2         -7.1201  -10.8383   -3.5026 F         1 <0>        -0.1342
     23 N5         -4.4583  -10.2225   -3.9407 N.am      1 <0>        -0.6683
     24 C14        -3.1316  -10.1553   -3.7134 C.2       1 <0>         0.5148
     25 O4         -2.6937   -9.3612   -2.9079 O.2       1 <0>        -0.5211
     26 C15        -2.1921  -11.0668   -4.4601 C.3       1 <0>        -0.1746
     27 C16        -2.1456   -0.0520    1.2133 C.3       1 <0>        -0.1527
     28 H1          1.0298    1.9148   -0.0700 H         1 <0>         0.0695
     29 H2         -0.5178    1.8969   -0.9492 H         1 <0>         0.0582
     30 H3         -0.5054    1.9000    0.8308 H         1 <0>         0.0664
     31 H4          0.5337   -0.3488   -0.9525 H         1 <0>         0.0764
     32 H5          0.5462   -0.3456    0.8274 H         1 <0>         0.0942
     33 H6         -2.3197    0.8391   -1.5207 H         1 <0>         0.4447
     34 H7         -1.6090   -4.1110   -2.1724 H         1 <0>         0.4316
     35 H8         -3.5992   -5.5774   -3.2455 H         1 <0>         0.1055
     36 H9         -3.1759   -6.2402   -1.6487 H         1 <0>         0.1104
     37 H10        -5.8188   -5.2516   -1.5299 H         1 <0>         0.4190
     38 H11        -3.8077   -7.7985   -3.1094 H         1 <0>         0.1653
     39 H12        -8.5431   -8.9735   -2.3625 H         1 <0>         0.1548
     40 H13        -4.8163  -10.9101   -4.5237 H         1 <0>         0.4187
     41 H14        -2.2852  -10.8863   -5.5310 H         1 <0>         0.0952
     42 H15        -1.1673  -10.8685   -4.1460 H         1 <0>         0.1000
     43 H16        -2.4441  -12.1048   -4.2433 H         1 <0>         0.0943
     44 H17        -2.1670    1.0375    1.2421 H         1 <0>         0.0890
     45 H18        -3.1659   -0.4352    1.2034 H         1 <0>         0.0716
     46 H19        -1.6246   -0.4285    2.0936 H         1 <0>         0.0883
@<TRIPOS>BOND
     1    1    2 1
     2    1   28 1
     3    1   29 1
     4    1   30 1
     5    2    3 1
     6    2   31 1
     7    2   32 1
     8    3    9 1
     9    3    4 1
    10    3   27 1
    11    4    5 2
    12    4    6 am
    13    6    7 am
    14    6   10 1
    15    7    8 2
    16    7    9 am
    17    9   33 1
    18   10   11 am
    19   10   34 1
    20   11   12 2
    21   11   13 1
    22   13   14 1
    23   13   35 1
    24   13   36 1
    25   14   15 1
    26   14   37 1
    27   15   20 ar
    28   15   16 ar
    29   16   17 ar
    30   16   38 1
    31   17   18 ar
    32   17   23 1
    33   18   19 ar
    34   18   22 1
    35   19   20 ar
    36   19   39 1
    37   20   21 1
    38   23   24 am
    39   23   40 1
    40   24   25 2
    41   24   26 1
    42   26   41 1
    43   26   42 1
    44   26   43 1
    45   27   44 1
    46   27   45 1
    47   27   46 1
@<TRIPOS>MOLECULE
ZINC09850613
   46    49     0     0     0
SMALL
USER_CHARGES
3-[(2-benzo[1,3]dioxol-5-ylimino-3-methyl-4-oxo-1,3-thiazinan-6-yl)carbonylamino]benzoic acid
@<TRIPOS>ATOM
      1 C1          7.8863    2.0833   -0.9236 C.3       1 <0>         0.0743
      2 N1          7.0740    3.2948   -1.0605 N.am      1 <0>        -0.5303
      3 C2          7.6804    4.4091   -1.4501 C.2       1 <0>         0.5216
      4 O1          8.8841    4.3495   -1.5837 O.2       1 <0>        -0.4995
      5 C3          7.0447    5.7274   -1.7414 C.3       1 <0>        -0.1257
      6 C4          5.7215    5.9047   -0.9971 C.3       1 <0>        -0.1043
      7 H1          5.9081    5.9509    0.0758 H         1 <0>         0.1296
      8 S1          4.6552    4.4786   -1.3764 S.3       1 <0>        -0.0689
      9 C5          5.7259    3.2052   -0.7757 C.2       1 <0>         0.3882
     10 N2          5.2506    2.1986   -0.0820 N.2       1 <0>        -0.4681
     11 C6          3.9090    2.1270    0.1908 C.ar      1 <0>         0.0939
     12 C7          3.2225    3.2606    0.6290 C.ar      1 <0>        -0.1113
     13 C8          1.8721    3.1860    0.9035 C.ar      1 <0>        -0.0851
     14 C9          1.1930    1.9877    0.7455 C.ar      1 <0>         0.0359
     15 C10         1.8724    0.8522    0.3084 C.ar      1 <0>         0.0381
     16 C11         3.2263    0.9205    0.0316 C.ar      1 <0>        -0.0770
     17 O2          0.9874   -0.1849    0.2357 O.3       1 <0>        -0.3071
     18 C12        -0.1480    0.2225    1.0216 C.3       1 <0>         0.2133
     19 O3         -0.1183    1.6600    0.9465 O.3       1 <0>        -0.3064
     20 C13         5.0522    7.1768   -1.4499 C.2       1 <0>         0.5263
     21 O4          5.1522    7.5371   -2.6037 O.2       1 <0>        -0.4776
     22 N3          4.3426    7.9140   -0.5727 N.am      1 <0>        -0.6561
     23 C14         3.8139    9.1495   -0.9636 C.ar      1 <0>         0.1109
     24 C15         2.6046    9.5863   -0.4355 C.ar      1 <0>        -0.1426
     25 C16         2.0780   10.8056   -0.8181 C.ar      1 <0>        -0.1220
     26 C17         2.7496   11.5983   -1.7265 C.ar      1 <0>        -0.0851
     27 C18         3.9653   11.1689   -2.2626 C.ar      1 <0>        -0.0957
     28 C19         4.4989    9.9398   -1.8728 C.ar      1 <0>        -0.0813
     29 C20         4.6867   12.0153   -3.2353 C.2       1 <0>         0.4887
     30 O5          5.7441   11.6397   -3.7004 O.co2     1 <0>        -0.6254
     31 H2          7.2542    1.2569   -0.5988 H         1 <0>         0.1011
     32 H3          8.3388    1.8387   -1.8846 H         1 <0>         0.0757
     33 H4          8.6702    2.2530   -0.1856 H         1 <0>         0.0762
     34 H5          7.7276    6.5233   -1.4441 H         1 <0>         0.1343
     35 H6          6.8595    5.8022   -2.8130 H         1 <0>         0.1413
     36 H7          3.7480    4.1960    0.7528 H         1 <0>         0.1487
     37 H8          1.3424    4.0642    1.2421 H         1 <0>         0.1429
     38 H9          3.7540    0.0411   -0.3068 H         1 <0>         0.1418
     39 H10        -0.0381   -0.1094    2.0540 H         1 <0>         0.0854
     40 H11        -1.0711   -0.1645    0.5900 H         1 <0>         0.1327
     41 H12         4.1983    7.5883    0.3295 H         1 <0>         0.4081
     42 H13         2.0745    8.9706    0.2760 H         1 <0>         0.1186
     43 H14         1.1378   11.1393   -0.4045 H         1 <0>         0.1223
     44 H15         2.3352   12.5507   -2.0224 H         1 <0>         0.1332
     45 H16         5.4406    9.6040   -2.2812 H         1 <0>         0.1392
     46 O6          4.1717   13.2034   -3.6065 O.co2     1 <0>        -0.7529
@<TRIPOS>BOND
     1    1    2 1
     2    1   31 1
     3    1   32 1
     4    1   33 1
     5    2    9 1
     6    2    3 am
     7    3    4 2
     8    3    5 1
     9    5    6 1
    10    5   34 1
    11    5   35 1
    12    6    7 1
    13    6    8 1
    14    6   20 1
    15    8    9 1
    16    9   10 2
    17   10   11 1
    18   11   16 ar
    19   11   12 ar
    20   12   13 ar
    21   12   36 1
    22   13   14 ar
    23   13   37 1
    24   14   19 1
    25   14   15 ar
    26   15   16 ar
    27   15   17 1
    28   16   38 1
    29   17   18 1
    30   18   19 1
    31   18   39 1
    32   18   40 1
    33   20   21 2
    34   20   22 am
    35   22   23 1
    36   22   41 1
    37   23   28 ar
    38   23   24 ar
    39   24   25 ar
    40   24   42 1
    41   25   26 ar
    42   25   43 1
    43   26   27 ar
    44   26   44 1
    45   27   28 ar
    46   27   29 1
    47   28   45 1
    48   29   30 2
    49   29   46 1
@<TRIPOS>MOLECULE
ZINC26219420
   40    42     0     0     0
SMALL
USER_CHARGES
N'-(4-chloro-3-nitro-phenyl)-N-cyclopropyl-benzene-1,3-disulfonamide
@<TRIPOS>ATOM
      1 C1          0.6515    4.2461    0.3246 C.ar      1 <0>        -0.1599
      2 C2          1.7189    3.3740    0.2172 C.ar      1 <0>         0.0239
      3 C3          1.4941    2.0120    0.1476 C.ar      1 <0>        -0.6780
      4 C4          0.2020    1.5218    0.1854 C.ar      1 <0>         0.0760
      5 C5         -0.8654    2.3940    0.2875 C.ar      1 <0>        -0.7075
      6 C6         -0.6402    3.7560    0.3628 C.ar      1 <0>         0.0059
      7 S1         -2.5125    1.7697    0.3283 S.o2      1 <0>         2.6960
      8 O1         -3.3564    2.8205   -0.1221 O.2       1 <0>        -0.9585
      9 O2         -2.4798    0.4961   -0.3011 O.2       1 <0>        -0.9528
     10 N1         -2.8958    1.5028    1.9171 N.pl3     1 <0>        -1.1213
     11 C7         -2.9837    2.6300    2.8487 C.3       1 <0>         0.0196
     12 C8         -2.5567    2.3843    4.2972 C.3       1 <0>        -0.1432
     13 C9         -4.0389    2.5525    3.9538 C.3       1 <0>        -0.1355
     14 S2          2.8544    0.9005    0.0102 S.o2      1 <0>         2.5983
     15 O3          4.0083    1.6172    0.4275 O.2       1 <0>        -1.0260
     16 O4          2.4492   -0.3151    0.6244 O.2       1 <0>        -0.9847
     17 N2          3.0578    0.5724   -1.6002 N.2       1 <0>        -1.0775
     18 C10         3.4040    1.5980   -2.4840 C.ar      1 <0>         0.2325
     19 C11         2.4570    2.1085   -3.3627 C.ar      1 <0>        -0.1057
     20 C12         2.8005    3.1253   -4.2317 C.ar      1 <0>        -0.0955
     21 C13         4.0899    3.6284   -4.2349 C.ar      1 <0>        -0.0403
     22 C14         5.0365    3.1182   -3.3643 C.ar      1 <0>        -0.0197
     23 C15         4.6970    2.1047   -2.4894 C.ar      1 <0>        -0.0935
     24 N3          6.4142    3.6591   -3.3703 N.pl3     1 <0>         0.0319
     25 O5          7.2479    3.2107   -2.6040 O.2       1 <0>        -0.1738
     26 O6          6.7142    4.5528   -4.1417 O.3       1 <0>        -0.1559
     27 Cl1         4.5199    4.9025   -5.3328 Cl        1 <0>        -0.0414
     28 H1          0.8271    5.3104    0.3789 H         1 <0>         0.1352
     29 H2          2.7283    3.7569    0.1873 H         1 <0>         0.1407
     30 H3          0.0263    0.4576    0.1308 H         1 <0>         0.1501
     31 H4         -1.4740    4.4373    0.4470 H         1 <0>         0.1379
     32 H5         -2.9205    0.4712    2.2981 H         1 <0>         0.4291
     33 H6         -2.7186    3.3416    2.0529 H         1 <0>         0.1150
     34 H7         -2.0286    1.4218    4.3655 H         1 <0>         0.1099
     35 H8         -1.8875    3.1937    4.6245 H         1 <0>         0.1096
     36 H9         -4.5945    3.5009    3.9974 H         1 <0>         0.1098
     37 H10        -4.7356    1.7290    3.7384 H         1 <0>         0.1100
     38 H11         1.4518    1.7134   -3.3635 H         1 <0>         0.1404
     39 H12         2.0637    3.5251   -4.9125 H         1 <0>         0.1427
     40 H13         5.4364    1.7066   -1.8103 H         1 <0>         0.1560
@<TRIPOS>BOND
     1    1    6 ar
     2    1    2 ar
     3    1   28 1
     4    2    3 ar
     5    2   29 1
     6    3    4 ar
     7    3   14 1
     8    4    5 ar
     9    4   30 1
    10    5    6 ar
    11    5    7 1
    12    6   31 1
    13    7    8 2
    14    7    9 2
    15    7   10 1
    16   10   11 1
    17   10   32 1
    18   11   13 1
    19   11   12 1
    20   11   33 1
    21   12   13 1
    22   12   34 1
    23   12   35 1
    24   13   36 1
    25   13   37 1
    26   14   15 2
    27   14   16 2
    28   14   17 1
    29   17   18 1
    30   18   23 ar
    31   18   19 ar
    32   19   20 ar
    33   19   38 1
    34   20   21 ar
    35   20   39 1
    36   21   22 ar
    37   21   27 1
    38   22   23 ar
    39   22   24 1
    40   23   40 1
    41   24   25 2
    42   24   26 1
@<TRIPOS>MOLECULE
ZINC07419253
   54    57     0     0     0
SMALL
USER_CHARGES

@<TRIPOS>ATOM
      1 C1         -0.0146    1.5028    0.0103 C.3       1 <0>        -0.1103
      2 C2          0.0048   -0.0040    0.0020 C.ar      1 <0>        -0.1176
      3 C3          0.0051   -0.7007    1.1968 C.ar      1 <0>        -0.0889
      4 C4          0.0229   -2.0815    1.1926 C.ar      1 <0>        -0.1593
      5 C5          0.0401   -2.7706   -0.0132 C.ar      1 <0>         0.1724
      6 C6          0.0393   -2.0683   -1.2110 C.ar      1 <0>        -0.1518
      7 C7          0.0166   -0.6871   -1.2000 C.ar      1 <0>        -0.0611
      8 C8          0.0099    0.0759   -2.4995 C.3       1 <0>        -0.1142
      9 N1          0.0586   -4.1697   -0.0209 N.am      1 <0>        -0.5540
     10 C9         -0.0367   -4.9925   -1.2325 C.3       1 <0>         0.1124
     11 C10         0.4565   -6.3963   -0.8172 C.3       1 <0>        -0.1196
     12 H1         -0.1119   -7.1755   -1.3250 H         1 <0>         0.1394
     13 C11         0.1627   -6.3974    0.7009 C.3       1 <0>        -0.1455
     14 C12         0.1717   -4.9328    1.0799 C.2       1 <0>         0.5201
     15 O1          0.2647   -4.5089    2.2124 O.2       1 <0>        -0.5054
     16 C13         1.9321   -6.5497   -1.0819 C.2       1 <0>         0.5233
     17 O2          2.5610   -5.6302   -1.5615 O.2       1 <0>        -0.5103
     18 N2          2.5530   -7.7087   -0.7857 N.am      1 <0>        -0.6293
     19 C14         3.9177   -7.8505   -1.0304 C.2       1 <0>         0.3354
     20 C15         4.7440   -6.9060   -1.5559 C.2       1 <0>        -0.2808
     21 C16         6.0282   -7.4540   -1.6336 C.2       1 <0>         0.0772
     22 N3          5.9856   -8.6785   -1.1755 N.2       1 <0>        -0.2495
     23 N4          4.6708   -8.9587   -0.7820 N.pl3     1 <0>        -0.3128
     24 C17         4.2139  -10.1573   -0.2367 C.ar      1 <0>         0.5743
     25 N5          5.0707  -11.1482   -0.0484 N.ar      1 <0>        -0.5863
     26 C18         4.6741  -12.3015    0.4676 C.ar      1 <0>         0.1868
     27 C19         3.3453  -12.4660    0.8121 C.ar      1 <0>        -0.3378
     28 C20         2.4677  -11.4035    0.6014 C.ar      1 <0>         0.4636
     29 O3          1.1568  -11.5205    0.9244 O.3       1 <0>        -0.6905
     30 N6          2.9356  -10.2738    0.0846 N.ar      1 <0>        -0.6443
     31 C21         5.6598  -13.4221    0.6764 C.3       1 <0>        -0.0922
     32 C22         7.2546   -6.7522   -2.1574 C.3       1 <0>        -0.0658
     33 H2         -1.0469    1.8529    0.0098 H         1 <0>         0.0659
     34 H3          0.4924    1.8678    0.9036 H         1 <0>         0.0632
     35 H4          0.4966    1.8777   -0.8764 H         1 <0>         0.0659
     36 H5         -0.0083   -0.1643    2.1340 H         1 <0>         0.1239
     37 H6          0.0238   -2.6250    2.1259 H         1 <0>         0.1536
     38 H7          0.0526   -2.6012   -2.1502 H         1 <0>         0.1263
     39 H8          1.0359    0.2732   -2.8103 H         1 <0>         0.0711
     40 H9         -0.4945   -0.5141   -3.2647 H         1 <0>         0.0657
     41 H10        -0.5164    1.0207   -2.3634 H         1 <0>         0.0683
     42 H11        -1.0704   -5.0418   -1.5746 H         1 <0>         0.0941
     43 H12         0.6018   -4.5850   -2.0163 H         1 <0>         0.1069
     44 H13        -0.8127   -6.8410    0.9004 H         1 <0>         0.1295
     45 H14         0.9440   -6.9329    1.2403 H         1 <0>         0.1159
     46 H15         2.0500   -8.4441   -0.4021 H         1 <0>         0.4371
     47 H16         4.4586   -5.9097   -1.8599 H         1 <0>         0.1758
     48 H17         2.9951  -13.3963    1.2343 H         1 <0>         0.1221
     49 H18         6.0989  -13.3393    1.6706 H         1 <0>         0.0716
     50 H19         5.1466  -14.3793    0.5844 H         1 <0>         0.0696
     51 H20         6.4470  -13.3583   -0.0749 H         1 <0>         0.0712
     52 H21         7.7555   -6.2361   -1.3384 H         1 <0>         0.0757
     53 H22         7.9334   -7.4845   -2.5946 H         1 <0>         0.0723
     54 H23         6.9620   -6.0285   -2.9181 H         1 <0>         0.0769
@<TRIPOS>BOND
     1    1    2 1
     2    1   33 1
     3    1   34 1
     4    1   35 1
     5    2    7 ar
     6    2    3 ar
     7    3    4 ar
     8    3   36 1
     9    4    5 ar
    10    4   37 1
    11    5    6 ar
    12    5    9 1
    13    6    7 ar
    14    6   38 1
    15    7    8 1
    16    8   39 1
    17    8   40 1
    18    8   41 1
    19    9   14 am
    20    9   10 1
    21   10   11 1
    22   10   42 1
    23   10   43 1
    24   11   12 1
    25   11   13 1
    26   11   16 1
    27   13   14 1
    28   13   44 1
    29   13   45 1
    30   14   15 2
    31   16   17 2
    32   16   18 am
    33   18   19 1
    34   18   46 1
    35   19   23 1
    36   19   20 2
    37   20   21 1
    38   20   47 1
    39   21   22 2
    40   21   32 1
    41   22   23 1
    42   23   24 1
    43   24   30 ar
    44   24   25 ar
    45   25   26 ar
    46   26   27 ar
    47   26   31 1
    48   27   28 ar
    49   27   48 1
    50   28   29 1
    51   28   30 ar
    52   31   49 1
    53   31   50 1
    54   31   51 1
    55   32   52 1
    56   32   53 1
    57   32   54 1
@<TRIPOS>MOLECULE
ZINC49549752
   55    58     0     0     0
SMALL
USER_CHARGES

@<TRIPOS>ATOM
      1 C1         -0.0110    1.5074    0.0180 C.3       1 <0>        -0.1469
      2 C2          0.0104   -0.0221   -0.0171 C.3       1 <0>         0.1961
      3 H1          0.5137   -0.3577   -0.9238 H         1 <0>         0.1014
      4 C3          0.7490   -0.5419    1.1892 C.2       1 <0>         0.4220
      5 O1          0.0665   -0.8975    2.2959 O.3       1 <0>        -0.6463
      6 N1          2.0460   -0.6475    1.1626 N.2       1 <0>        -0.6078
      7 C4          2.7147   -1.1181    2.2546 C.2       1 <0>         0.3734
      8 N2          2.2498   -1.5264    3.4329 N.2       1 <0>        -0.3498
      9 N3          3.0206   -1.9365    4.3431 N.2       1 <0>        -0.2256
     10 C5          4.3295   -1.9866    4.1862 C.2       1 <0>        -0.0408
     11 S1          4.4688   -1.3708    2.5107 S.3       1 <0>        -0.1257
     12 C6          5.4021   -2.4397    5.1429 C.3       1 <0>         0.2022
     13 H2          6.3366   -2.6116    4.6087 H         1 <0>         0.0868
     14 C7          5.6072   -1.3852    6.2595 C.3       1 <0>        -0.1426
     15 C8          6.1905   -2.2688    7.3958 C.3       1 <0>        -0.1544
     16 C9          5.4531   -3.6080    7.1808 C.3       1 <0>         0.0508
     17 O2          4.9900   -3.6353    5.8241 O.3       1 <0>        -0.3648
     18 N4         -1.3636   -0.5301   -0.0047 N.am      1 <0>        -0.7238
     19 C10        -2.0511   -0.6420   -1.1585 C.2       1 <0>         0.7106
     20 O3         -1.5654   -0.2378   -2.1973 O.2       1 <0>        -0.5933
     21 N5         -3.2770   -1.2020   -1.1609 N.am      1 <0>        -0.6314
     22 C11        -3.9284   -1.5816    0.1006 C.3       1 <0>         0.0947
     23 C12        -5.2993   -0.8973    0.1695 C.3       1 <0>         0.1069
     24 N6         -6.0088   -1.1389   -1.0946 N.pl3     1 <0>        -0.6242
     25 C13        -5.3574   -0.7594   -2.3562 C.3       1 <0>         0.1060
     26 C14        -3.9889   -1.4385   -2.4247 C.3       1 <0>         0.1156
     27 C15        -7.2806   -1.7199   -1.0971 C.ar      1 <0>         0.2166
     28 C16        -7.8891   -2.0564   -2.2992 C.ar      1 <0>        -0.1751
     29 C17        -9.1453   -2.6306   -2.2993 C.ar      1 <0>        -0.1007
     30 C18        -9.7979   -2.8708   -1.1019 C.ar      1 <0>         0.0286
     31 C19        -9.1932   -2.5360    0.0979 C.ar      1 <0>        -0.0999
     32 C20        -7.9349   -1.9664    0.1029 C.ar      1 <0>        -0.1743
     33 F1        -11.0268   -3.4321   -1.1043 F         1 <0>        -0.1490
     34 H3          1.0113    1.8854    0.0088 H         1 <0>         0.0706
     35 H4         -0.5453    1.8834   -0.8545 H         1 <0>         0.0632
     36 H5         -0.5143    1.8430    0.9247 H         1 <0>         0.0549
     37 H6          6.3200   -0.6203    5.9515 H         1 <0>         0.0857
     38 H7          4.6585   -0.9385    6.5570 H         1 <0>         0.0861
     39 H8          7.2665   -2.3947    7.2757 H         1 <0>         0.0765
     40 H9          5.9547   -1.8488    8.3736 H         1 <0>         0.0821
     41 H10         6.1374   -4.4387    7.3532 H         1 <0>         0.0671
     42 H11         4.6060   -3.6774    7.8632 H         1 <0>         0.0692
     43 H12        -1.7786   -0.7859    0.8339 H         1 <0>         0.4045
     44 H13        -4.0574   -2.6634    0.1347 H         1 <0>         0.0743
     45 H14        -3.3150   -1.2571    0.9412 H         1 <0>         0.0950
     46 H15        -5.8744   -1.3129    0.9970 H         1 <0>         0.0956
     47 H16        -5.1662    0.1747    0.3153 H         1 <0>         0.0713
     48 H17        -5.9709   -1.0838   -3.1967 H         1 <0>         0.0942
     49 H18        -5.2285    0.3224   -2.3903 H         1 <0>         0.0703
     50 H19        -3.4154   -1.0196   -3.2516 H         1 <0>         0.1054
     51 H20        -4.1223   -2.5099   -2.5746 H         1 <0>         0.0672
     52 H21        -7.3806   -1.8690   -3.2334 H         1 <0>         0.1330
     53 H22        -9.6190   -2.8922   -3.2339 H         1 <0>         0.1323
     54 H23        -9.7042   -2.7239    1.0306 H         1 <0>         0.1328
     55 H24        -7.4616   -1.7096    1.0391 H         1 <0>         0.1335
@<TRIPOS>BOND
     1    1    2 1
     2    1   34 1
     3    1   35 1
     4    1   36 1
     5    2    3 1
     6    2    4 1
     7    2   18 1
     8    4    5 1
     9    4    6 2
    10    6    7 1
    11    7   11 1
    12    7    8 2
    13    8    9 1
    14    9   10 2
    15   10   11 1
    16   10   12 1
    17   12   13 1
    18   12   17 1
    19   12   14 1
    20   14   15 1
    21   14   37 1
    22   14   38 1
    23   15   16 1
    24   15   39 1
    25   15   40 1
    26   16   17 1
    27   16   41 1
    28   16   42 1
    29   18   19 am
    30   18   43 1
    31   19   20 2
    32   19   21 am
    33   21   26 1
    34   21   22 1
    35   22   23 1
    36   22   44 1
    37   22   45 1
    38   23   24 1
    39   23   46 1
    40   23   47 1
    41   24   25 1
    42   24   27 1
    43   25   26 1
    44   25   48 1
    45   25   49 1
    46   26   50 1
    47   26   51 1
    48   27   32 ar
    49   27   28 ar
    50   28   29 ar
    51   28   52 1
    52   29   30 ar
    53   29   53 1
    54   30   31 ar
    55   30   33 1
    56   31   32 ar
    57   31   54 1
    58   32   55 1
@<TRIPOS>MOLECULE
ZINC63448144
   49    52     0     0     0
SMALL
USER_CHARGES

@<TRIPOS>ATOM
      1 C1          1.2443   -0.9812    0.6382 C.3       1 <0>         0.0261
      2 O1          0.1291   -0.1941    0.2151 O.3       1 <0>        -0.3179
      3 C2         -1.0853   -0.8003    0.2072 C.ar      1 <0>         0.1447
      4 C3         -1.1994   -2.1279    0.6057 C.ar      1 <0>        -0.2004
      5 C4         -2.4278   -2.7478    0.5993 C.ar      1 <0>        -0.0124
      6 C5         -3.5656   -2.0384    0.1906 C.ar      1 <0>        -0.0650
      7 C6         -3.4444   -0.7004   -0.2095 C.ar      1 <0>        -0.0250
      8 C7         -2.2115   -0.0896   -0.1939 C.ar      1 <0>        -0.1606
      9 C8         -4.8775   -2.6935    0.1811 C.2       1 <0>         0.1637
     10 N1         -6.0621   -2.1351    0.3352 N.2       1 <0>        -0.2853
     11 N2         -7.0411   -2.9571    0.2273 N.2       1 <0>        -0.2772
     12 C9         -6.6943   -4.1220   -0.2253 C.2       1 <0>         0.2624
     13 C10        -5.1789   -4.1569   -0.0133 C.3       1 <0>        -0.1537
     14 H1         -4.9215   -4.7307    0.8770 H         1 <0>         0.1636
     15 C11        -4.5650   -4.7521   -1.2457 C.2       1 <0>        -0.0204
     16 C12        -5.2999   -5.6659   -1.9375 C.2       1 <0>        -0.2294
     17 C13        -6.6748   -5.9791   -1.5357 C.2       1 <0>         0.3080
     18 N3         -7.3382   -5.1699   -0.7174 N.2       1 <0>        -0.4719
     19 C14        -7.3240   -7.2063   -2.0376 C.ar      1 <0>         0.0084
     20 C15        -6.6273   -8.0692   -2.8884 C.ar      1 <0>        -0.1882
     21 C16        -7.2376   -9.2176   -3.3569 C.ar      1 <0>         0.1345
     22 C17        -8.5454   -9.5152   -2.9819 C.ar      1 <0>         0.0626
     23 C18        -9.2419   -8.6573   -2.1343 C.ar      1 <0>         0.1299
     24 C19        -8.6346   -7.5105   -1.6582 C.ar      1 <0>        -0.1747
     25 O2        -10.5189   -8.9509   -1.7701 O.3       1 <0>        -0.3037
     26 C20       -11.1737   -8.0271   -0.8985 C.3       1 <0>         0.0227
     27 O3         -9.1433  -10.6450   -3.4444 O.3       1 <0>        -0.4720
     28 O4         -6.5605  -10.0573   -4.1850 O.3       1 <0>        -0.3027
     29 C21        -5.2230   -9.6902   -4.5291 C.3       1 <0>         0.0198
     30 C22        -3.2260   -4.3647   -1.6883 C.2       1 <0>         0.5268
     31 O5         -3.0828   -3.4128   -2.4453 O.co2     1 <0>        -0.6504
     32 O6         -2.2479   -4.9921   -1.3019 O.co2     1 <0>        -0.6702
     33 H2          2.1512   -0.3779    0.5974 H         1 <0>         0.0964
     34 H3          1.0809   -1.3231    1.6602 H         1 <0>         0.0541
     35 H4          1.3514   -1.8431   -0.0205 H         1 <0>         0.0594
     36 H5         -0.3221   -2.6734    0.9204 H         1 <0>         0.1300
     37 H6         -2.5151   -3.7790    0.9083 H         1 <0>         0.1277
     38 H7         -4.3175   -0.1490   -0.5257 H         1 <0>         0.1336
     39 H8         -2.1175    0.9425   -0.4978 H         1 <0>         0.1323
     40 H9         -4.8658   -6.1649   -2.7912 H         1 <0>         0.1416
     41 H10        -5.6132   -7.8387   -3.1798 H         1 <0>         0.1479
     42 H11        -9.1736   -6.8478   -0.9974 H         1 <0>         0.1525
     43 H12       -10.6142   -7.9479    0.0336 H         1 <0>         0.0594
     44 H13       -11.2232   -7.0489   -1.3768 H         1 <0>         0.0610
     45 H14       -12.1832   -8.3798   -0.6874 H         1 <0>         0.1020
     46 H15        -9.0141  -11.4183   -2.8784 H         1 <0>         0.3831
     47 H16        -5.2298   -8.7239   -5.0335 H         1 <0>         0.0614
     48 H17        -4.6203   -9.6230   -3.6234 H         1 <0>         0.0618
     49 H18        -4.7988  -10.4435   -5.1929 H         1 <0>         0.1039
@<TRIPOS>BOND
     1    1    2 1
     2    1   33 1
     3    1   34 1
     4    1   35 1
     5    2    3 1
     6    3    8 ar
     7    3    4 ar
     8    4    5 ar
     9    4   36 1
    10    5    6 ar
    11    5   37 1
    12    6    7 ar
    13    6    9 1
    14    7    8 ar
    15    7   38 1
    16    8   39 1
    17    9   13 1
    18    9   10 2
    19   10   11 1
    20   11   12 2
    21   12   18 1
    22   12   13 1
    23   13   14 1
    24   13   15 1
    25   15   16 2
    26   15   30 1
    27   16   17 1
    28   16   40 1
    29   17   18 2
    30   17   19 1
    31   19   24 ar
    32   19   20 ar
    33   20   21 ar
    34   20   41 1
    35   21   22 ar
    36   21   28 1
    37   22   23 ar
    38   22   27 1
    39   23   24 ar
    40   23   25 1
    41   24   42 1
    42   25   26 1
    43   26   43 1
    44   26   44 1
    45   26   45 1
    46   27   46 1
    47   28   29 1
    48   29   47 1
    49   29   48 1
    50   29   49 1
    51   30   31 2
    52   30   32 1
@<TRIPOS>MOLECULE
ZINC09422361
   44    47     0     0     0
SMALL
USER_CHARGES
2-[3-[2-(1,3-dioxoisoindolin-2-yl)ethyl]-2,4-dioxo-thiazolidin-5-yl]aminobenzoic acid
@<TRIPOS>ATOM
      1 C1         -3.8815    5.4451    8.7157 C.ar      1 <0>        -0.0976
      2 C2         -4.9349    4.6165    8.3772 C.ar      1 <0>        -0.0962
      3 C3         -4.9395    3.9456    7.1642 C.ar      1 <0>        -0.0451
      4 C4         -3.8802    4.1074    6.2857 C.ar      1 <0>        -0.1345
      5 C5         -2.8061    4.9523    6.6309 C.ar      1 <0>        -0.1370
      6 C6         -2.8151    5.6165    7.8469 C.ar      1 <0>        -0.0451
      7 C7         -1.8661    4.8976    5.4914 C.2       1 <0>         0.5708
      8 O1         -0.8125    5.4963    5.4122 O.2       1 <0>        -0.4532
      9 N1         -2.3732    4.0736    4.5566 N.am      1 <0>        -0.5715
     10 C8         -3.5590    3.5717    4.9460 C.2       1 <0>         0.5680
     11 O2         -4.2490    2.8049    4.3051 O.2       1 <0>        -0.4436
     12 C9         -1.7226    3.7681    3.2801 C.3       1 <0>         0.0975
     13 C10        -0.8160    2.5473    3.4491 C.3       1 <0>         0.0767
     14 N2         -0.1654    2.2417    2.1725 N.am      1 <0>        -0.5761
     15 C11        -0.7735    1.4127    1.3408 C.2       1 <0>         0.5177
     16 O3         -1.8425    0.9029    1.6002 O.2       1 <0>        -0.4408
     17 C12        -0.0392    1.1430    0.0352 C.3       1 <0>         0.1844
     18 H1          0.2287    0.0906   -0.0589 H         1 <0>         0.1465
     19 S1          1.4484    2.1910    0.2886 S.3       1 <0>        -0.1393
     20 C13         1.0206    2.8193    1.9056 C.2       1 <0>         0.5571
     21 O4          1.6531    3.5893    2.6021 O.2       1 <0>        -0.4198
     22 N3         -0.8193    1.5953   -1.1194 N.pl3     1 <0>        -0.7112
     23 C14        -0.1873    2.2381   -2.1753 C.ar      1 <0>         0.2174
     24 C15         1.0607    1.8076   -2.6090 C.ar      1 <0>        -0.1769
     25 C16         1.6844    2.4450   -3.6615 C.ar      1 <0>        -0.0889
     26 C17         1.0791    3.5237   -4.2873 C.ar      1 <0>        -0.1675
     27 C18        -0.1552    3.9686   -3.8687 C.ar      1 <0>        -0.0484
     28 C19        -0.8032    3.3304   -2.8069 C.ar      1 <0>        -0.1527
     29 C20        -2.1236    3.8005   -2.3542 C.2       1 <0>         0.4940
     30 O5         -2.6384    3.3096   -1.3689 O.co2     1 <0>        -0.6303
     31 H2         -3.8892    5.9621    9.6638 H         1 <0>         0.1419
     32 H3         -5.7599    4.4907    9.0627 H         1 <0>         0.1421
     33 H4         -5.7653    3.2998    6.9048 H         1 <0>         0.1435
     34 H5         -1.9946    6.2649    8.1168 H         1 <0>         0.1427
     35 H6         -1.1255    4.6230    2.9628 H         1 <0>         0.1047
     36 H7         -2.4816    3.5555    2.5272 H         1 <0>         0.1136
     37 H8         -1.4131    1.6924    3.7663 H         1 <0>         0.1071
     38 H9         -0.0570    2.7598    4.2020 H         1 <0>         0.1031
     39 H10        -1.7773    1.4457   -1.1461 H         1 <0>         0.4271
     40 H11         1.5410    0.9705   -2.1242 H         1 <0>         0.1132
     41 H12         2.6525    2.1039   -3.9974 H         1 <0>         0.1153
     42 H13         1.5783    4.0182   -5.1075 H         1 <0>         0.1150
     43 H14        -0.6222    4.8093   -4.3602 H         1 <0>         0.1302
     44 O6         -2.7608    4.7751   -3.0326 O.co2     1 <0>        -0.7536
@<TRIPOS>BOND
     1    1    6 ar
     2    1    2 ar
     3    1   31 1
     4    2    3 ar
     5    2   32 1
     6    3    4 ar
     7    3   33 1
     8    4   10 1
     9    4    5 ar
    10    5    6 ar
    11    5    7 1
    12    6   34 1
    13    7    8 2
    14    7    9 am
    15    9   10 am
    16    9   12 1
    17   10   11 2
    18   12   13 1
    19   12   35 1
    20   12   36 1
    21   13   14 1
    22   13   37 1
    23   13   38 1
    24   14   20 am
    25   14   15 am
    26   15   16 2
    27   15   17 1
    28   17   18 1
    29   17   19 1
    30   17   22 1
    31   19   20 1
    32   20   21 2
    33   22   23 1
    34   22   39 1
    35   23   28 ar
    36   23   24 ar
    37   24   25 ar
    38   24   40 1
    39   25   26 ar
    40   25   41 1
    41   26   27 ar
    42   26   42 1
    43   27   28 ar
    44   27   43 1
    45   28   29 1
    46   29   30 2
    47   29   44 1
@<TRIPOS>MOLECULE
ZINC20332075
   47    51     0     0     0
SMALL
USER_CHARGES
7-[[4-[(Z)-(5-imino-3-methyl-7-oxo-thiazolo[3,2-a]pyrimidin-6-ylidene)methyl]phenoxy]methyl]-2-methyl-[1,3,4]thiadiazolo[2,3-b]pyrimidin-5-one
@<TRIPOS>ATOM
      1 C1         -2.9414   17.3654    7.8176 C.3       1 <0>        -0.0695
      2 C2         -2.6642   16.2406    6.8538 C.2       1 <0>         0.1432
      3 N1         -2.8415   16.2050    5.5681 N.2       1 <0>        -0.2528
      4 N2         -2.5307   15.0742    4.8190 N.am      1 <0>        -0.3808
      5 C3         -2.6708   14.9126    3.4703 C.2       1 <0>         0.5447
      6 O1         -3.1117   15.8241    2.7876 O.2       1 <0>        -0.4974
      7 C4         -2.3033   13.7067    2.8728 C.2       1 <0>        -0.2578
      8 C5         -1.8107   12.6801    3.6503 C.2       1 <0>         0.2031
      9 N3         -1.6875   12.8708    4.9614 N.2       1 <0>        -0.4668
     10 C6         -2.0297   14.0073    5.5133 C.2       1 <0>         0.3220
     11 S1         -2.0079   14.6136    7.1862 S.3       1 <0>         0.0983
     12 C7         -1.4131   11.3676    3.0256 C.3       1 <0>         0.1097
     13 O2         -0.0044   11.1776    3.1722 O.3       1 <0>        -0.2993
     14 C8          0.5198   10.0358    2.6600 C.ar      1 <0>         0.1430
     15 C9          1.8847    9.7901    2.7695 C.ar      1 <0>        -0.1475
     16 C10         2.4203    8.6387    2.2532 C.ar      1 <0>        -0.0105
     17 C11         1.5892    7.7074    1.6140 C.ar      1 <0>        -0.1067
     18 C12         0.2150    7.9632    1.5020 C.ar      1 <0>        -0.0502
     19 C13        -0.3097    9.1157    2.0270 C.ar      1 <0>        -0.2187
     20 C14         2.1553    6.4752    1.0602 C.2       1 <0>         0.0128
     21 C15         3.1844    5.8360    1.7139 C.2       1 <0>        -0.2433
     22 C16         3.9162    4.6924    1.0995 C.2       1 <0>         0.4176
     23 N4          3.3526    3.8266    0.3007 N.2       1 <0>        -0.6357
     24 N5          5.2799    4.6365    1.4664 N.pl3     1 <0>        -0.4936
     25 C17         6.2547    3.9882    0.7649 C.2       1 <0>         0.1784
     26 C18         7.4958    3.9454    1.2577 C.2       1 <0>        -0.2795
     27 S2          7.3241    4.8604    2.7818 S.3       1 <0>         0.1089
     28 C19         5.6527    5.2543    2.6403 C.2       1 <0>         0.3496
     29 N6          4.8950    5.9787    3.4314 N.2       1 <0>        -0.6041
     30 C20         3.6265    6.2475    3.0696 C.2       1 <0>         0.5439
     31 O3          2.8622    6.8138    3.8342 O.2       1 <0>        -0.4873
     32 C21         5.9345    3.3274   -0.5511 C.2       1 <0>        -0.5810
     33 H1         -3.3448   18.2284    7.2676 H         1 <0>         0.1107
     34 H2         -2.0074   17.6554    8.3210 H         1 <0>         0.1117
     35 H3         -3.6744   17.0333    8.5676 H         1 <0>         0.1113
     36 H4         -2.4083   13.5762    1.8058 H         1 <0>         0.1769
     37 H5         -1.9478   10.5466    3.5257 H         1 <0>         0.0967
     38 H6         -1.6726   11.3767    1.9567 H         1 <0>         0.0971
     39 H7          2.5237   10.5081    3.2620 H         1 <0>         0.1328
     40 H8          3.4801    8.4490    2.3388 H         1 <0>         0.1248
     41 H9         -0.4293    7.2518    1.0069 H         1 <0>         0.1289
     42 H10        -1.3685    9.3120    1.9451 H         1 <0>         0.1300
     43 H11         1.7581    6.0606    0.1219 H         1 <0>         0.1358
     44 H12         2.2855    3.9217    0.0514 H         1 <0>         0.3405
     45 H13         8.2895    3.4222    0.7044 H         1 <0>         0.2157
     46 H14         5.1727    2.5630   -0.3980 H         1 <0>         0.0110
     47 H15         5.5634    4.0749   -1.2523 H         1 <0>        -0.0170
@<TRIPOS>BOND
     1    1    2 1
     2    1   33 1
     3    1   34 1
     4    1   35 1
     5    2   11 1
     6    2    3 2
     7    3    4 1
     8    4   10 1
     9    4    5 am
    10    5    6 2
    11    5    7 1
    12    7    8 2
    13    7   36 1
    14    8    9 1
    15    8   12 1
    16    9   10 2
    17   10   11 1
    18   12   13 1
    19   12   37 1
    20   12   38 1
    21   13   14 1
    22   14   19 ar
    23   14   15 ar
    24   15   16 ar
    25   15   39 1
    26   16   17 ar
    27   16   40 1
    28   17   18 ar
    29   17   20 1
    30   18   19 ar
    31   18   41 1
    32   19   42 1
    33   20   21 2
    34   20   43 1
    35   21   30 1
    36   21   22 1
    37   22   23 2
    38   22   24 1
    39   23   44 1
    40   24   28 1
    41   24   25 1
    42   25   26 2
    43   25   32 1
    44   26   27 1
    45   26   45 1
    46   27   28 1
    47   28   29 2
    48   29   30 1
    49   30   31 2
    50   32   46 1
    51   32   47 1
@<TRIPOS>MOLECULE
ZINC01921215
   44    47     0     0     0
SMALL
USER_CHARGES
N-(2,6-dioxo-3-phenyl-pyrimidin-4-yl)-2-[(5-phenyl-1,3,4-oxadiazol-2-yl)sulfanyl]acetamide
@<TRIPOS>ATOM
      1 C1        -12.8149   -0.5576   -0.4240 C.ar      1 <0>        -0.0953
      2 C2        -12.3494    0.7446   -0.4705 C.ar      1 <0>        -0.1204
      3 C3        -10.9951    0.9989   -0.4062 C.ar      1 <0>        -0.0673
      4 C4        -10.0936   -0.0612   -0.2938 C.ar      1 <0>        -0.0236
      5 C5        -10.5698   -1.3729   -0.2528 C.ar      1 <0>        -0.0839
      6 C6        -11.9270   -1.6128   -0.3128 C.ar      1 <0>        -0.1201
      7 C7         -8.6416    0.2036   -0.2249 C.2       1 <0>         0.2062
      8 N1         -8.0650    1.3802   -0.2588 N.2       1 <0>        -0.2621
      9 N2         -6.7895    1.2340   -0.1773 N.2       1 <0>        -0.2885
     10 C8         -6.5010   -0.0440   -0.0880 C.2       1 <0>         0.1240
     11 O1         -7.6633   -0.7232   -0.1219 O.3       1 <0>        -0.1993
     12 S1         -4.8887   -0.7423    0.0443 S.3       1 <0>         0.1614
     13 C9         -3.8894    0.7665    0.0165 C.3       1 <0>        -0.1630
     14 C10        -2.4302    0.4047    0.1209 C.2       1 <0>         0.5445
     15 O2         -2.1033   -0.7479    0.3078 O.2       1 <0>        -0.5016
     16 N3         -1.4886    1.3621    0.0066 N.am      1 <0>        -0.6804
     17 C11        -0.1537    1.0179   -0.0077 C.2       1 <0>         0.3730
     18 C12         0.4457    0.6347   -1.1719 C.2       1 <0>        -0.2746
     19 C13         1.8072    0.2830   -1.1557 C.2       1 <0>         0.5156
     20 O3          2.3635   -0.0633   -2.1834 O.3       1 <0>        -0.5963
     21 N4          2.4930    0.3313    0.0034 N.2       1 <0>        -0.6881
     22 C14         1.8855    0.7117    1.1421 C.2       1 <0>         0.6527
     23 O4          2.5221    0.7477    2.1773 O.2       1 <0>        -0.5959
     24 N5          0.5838    1.0525    1.1523 N.am      1 <0>        -0.5202
     25 C15        -0.0239    1.4445    2.3524 C.ar      1 <0>         0.1525
     26 C16        -0.3168    0.4982    3.3254 C.ar      1 <0>        -0.0962
     27 C17        -0.9106    0.8886    4.5097 C.ar      1 <0>        -0.1113
     28 C18        -1.2240    2.2186    4.7222 C.ar      1 <0>        -0.1268
     29 C19        -0.9388    3.1625    3.7527 C.ar      1 <0>        -0.1143
     30 C20        -0.3398    2.7792    2.5687 C.ar      1 <0>        -0.1227
     31 H1        -13.8762   -0.7511   -0.4745 H         1 <0>         0.1305
     32 H2        -13.0479    1.5637   -0.5571 H         1 <0>         0.1349
     33 H3        -10.6330    2.0158   -0.4422 H         1 <0>         0.1403
     34 H4         -9.8775   -2.1978   -0.1705 H         1 <0>         0.1330
     35 H5        -12.2969   -2.6269   -0.2774 H         1 <0>         0.1334
     36 H6         -4.0668    1.3065   -0.9253 H         1 <0>         0.1368
     37 H7         -4.1698    1.4077    0.8652 H         1 <0>         0.1371
     38 H8         -1.7852    2.4182   -0.0753 H         1 <0>         0.4365
     39 H9         -0.1176    0.6015   -2.0927 H         1 <0>         0.1297
     40 H10        -0.0764   -0.5413    3.1581 H         1 <0>         0.1218
     41 H11        -1.1349    0.1536    5.2686 H         1 <0>         0.1231
     42 H12        -1.6921    2.5208    5.6474 H         1 <0>         0.1206
     43 H13        -1.1843    4.2005    3.9217 H         1 <0>         0.1232
     44 H14        -0.1169    3.5169    1.8120 H         1 <0>         0.1210
@<TRIPOS>BOND
     1    1    6 ar
     2    1    2 ar
     3    1   31 1
     4    2    3 ar
     5    2   32 1
     6    3    4 ar
     7    3   33 1
     8    4    5 ar
     9    4    7 1
    10    5    6 ar
    11    5   34 1
    12    6   35 1
    13    7   11 1
    14    7    8 2
    15    8    9 1
    16    9   10 2
    17   10   11 1
    18   10   12 1
    19   12   13 1
    20   13   14 1
    21   13   36 1
    22   13   37 1
    23   14   15 2
    24   14   16 am
    25   16   17 1
    26   16   38 1
    27   17   24 1
    28   17   18 2
    29   18   19 1
    30   18   39 1
    31   19   20 1
    32   19   21 2
    33   21   22 1
    34   22   23 2
    35   22   24 am
    36   24   25 1
    37   25   30 ar
    38   25   26 ar
    39   26   27 ar
    40   26   40 1
    41   27   28 ar
    42   27   41 1
    43   28   29 ar
    44   28   42 1
    45   29   30 ar
    46   29   43 1
    47   30   44 1
@<TRIPOS>MOLECULE
ZINC07419947
   54    57     0     0     0
SMALL
USER_CHARGES

@<TRIPOS>ATOM
      1 C1         -0.0128    1.5217    0.0157 C.3       1 <0>        -0.1387
      2 C2         -0.0069   -0.0082   -0.0021 C.3       1 <0>        -0.0637
      3 C3          0.6984   -0.4934   -1.2423 C.ar      1 <0>         0.1910
      4 C4          1.7605   -1.3730   -1.1437 C.ar      1 <0>        -0.3355
      5 C5          2.3836   -1.7966   -2.3166 C.ar      1 <0>         0.4634
      6 O1          3.4281   -2.6587   -2.2673 O.3       1 <0>        -0.6896
      7 N1          1.9389   -1.3437   -3.4826 N.ar      1 <0>        -0.6445
      8 C6          0.9191   -0.5023   -3.5350 C.ar      1 <0>         0.5730
      9 N2          0.3044   -0.0864   -2.4393 N.ar      1 <0>        -0.5819
     10 N3          0.4780   -0.0461   -4.7760 N.pl3     1 <0>        -0.3120
     11 C7          0.9975   -0.3879   -5.9886 C.2       1 <0>         0.3344
     12 C8          0.2830    0.2735   -6.9388 C.2       1 <0>        -0.2807
     13 C9         -0.6935    1.0353   -6.2893 C.2       1 <0>         0.0766
     14 N4         -0.5825    0.8412   -5.0005 N.2       1 <0>        -0.2485
     15 C10        -1.7075    1.9247   -6.9615 C.3       1 <0>        -0.0659
     16 N5          2.0645   -1.2557   -6.2139 N.am      1 <0>        -0.6282
     17 C11         2.4762   -1.5049   -7.4728 C.2       1 <0>         0.5322
     18 O2          1.9181   -0.9740   -8.4096 O.2       1 <0>        -0.5135
     19 C12         3.6300   -2.4433   -7.7164 C.3       1 <0>        -0.1176
     20 H1          3.4156   -3.4341   -7.3159 H         1 <0>         0.1301
     21 C13         4.9394   -1.8768   -7.1200 C.3       1 <0>        -0.1471
     22 C14         6.0045   -2.2760   -8.1174 C.2       1 <0>         0.5247
     23 O3          7.1974   -2.2735   -7.8982 O.2       1 <0>        -0.5034
     24 N6          5.4365   -2.6344   -9.2817 N.am      1 <0>        -0.5597
     25 C15         3.9742   -2.5174   -9.2205 C.3       1 <0>         0.1141
     26 C16         6.1473   -3.0647  -10.4076 C.ar      1 <0>         0.1650
     27 C17         7.5358   -3.0364  -10.4065 C.ar      1 <0>        -0.1534
     28 C18         8.2345   -3.4617  -11.5194 C.ar      1 <0>        -0.0919
     29 C19         7.5530   -3.9153  -12.6338 C.ar      1 <0>        -0.1168
     30 C20         6.1705   -3.9443  -12.6382 C.ar      1 <0>        -0.0930
     31 C21         5.4660   -3.5262  -11.5262 C.ar      1 <0>        -0.1539
     32 C22         8.3186   -4.3786  -13.8463 C.3       1 <0>        -0.1098
     33 H2          1.0135    1.8891    0.0141 H         1 <0>         0.0482
     34 H3         -0.5331    1.8933   -0.8671 H         1 <0>         0.0666
     35 H4         -0.5229    1.8727    0.9128 H         1 <0>         0.0505
     36 H5          0.5135   -0.3798    0.8807 H         1 <0>         0.0732
     37 H6         -1.0331   -0.3755   -0.0004 H         1 <0>         0.0756
     38 H7          2.0998   -1.7237   -0.1802 H         1 <0>         0.1215
     39 H8          0.4421    0.2203   -8.0057 H         1 <0>         0.1767
     40 H9         -2.6067    1.3491   -7.1813 H         1 <0>         0.0757
     41 H10        -1.9593    2.7534   -6.2997 H         1 <0>         0.0720
     42 H11        -1.2900    2.3149   -7.8897 H         1 <0>         0.0770
     43 H12         2.5109   -1.6803   -5.4646 H         1 <0>         0.4378
     44 H13         4.8824   -0.7915   -7.0367 H         1 <0>         0.1164
     45 H14         5.1406   -2.3250   -6.1470 H         1 <0>         0.1277
     46 H15         3.5059   -3.3921   -9.6719 H         1 <0>         0.0955
     47 H16         3.6470   -1.6097   -9.7275 H         1 <0>         0.1038
     48 H17         8.0686   -2.6819   -9.5366 H         1 <0>         0.1553
     49 H18         9.3143   -3.4396  -11.5193 H         1 <0>         0.1246
     50 H19         5.6411   -4.2988  -13.5102 H         1 <0>         0.1250
     51 H20         4.3864   -3.5539  -11.5283 H         1 <0>         0.1274
     52 H21         8.5224   -5.4460  -13.7614 H         1 <0>         0.0670
     53 H22         7.7272   -4.1919  -14.7427 H         1 <0>         0.0637
     54 H23         9.2600   -3.8331  -13.9119 H         1 <0>         0.0638
@<TRIPOS>BOND
     1    1    2 1
     2    1   33 1
     3    1   34 1
     4    1   35 1
     5    2    3 1
     6    2   36 1
     7    2   37 1
     8    3    9 ar
     9    3    4 ar
    10    4    5 ar
    11    4   38 1
    12    5    6 1
    13    5    7 ar
    14    7    8 ar
    15    8    9 ar
    16    8   10 1
    17   10   14 1
    18   10   11 1
    19   11   12 2
    20   11   16 1
    21   12   13 1
    22   12   39 1
    23   13   14 2
    24   13   15 1
    25   15   40 1
    26   15   41 1
    27   15   42 1
    28   16   17 am
    29   16   43 1
    30   17   18 2
    31   17   19 1
    32   19   20 1
    33   19   25 1
    34   19   21 1
    35   21   22 1
    36   21   44 1
    37   21   45 1
    38   22   23 2
    39   22   24 am
    40   24   25 1
    41   24   26 1
    42   25   46 1
    43   25   47 1
    44   26   31 ar
    45   26   27 ar
    46   27   28 ar
    47   27   48 1
    48   28   29 ar
    49   28   49 1
    50   29   30 ar
    51   29   32 1
    52   30   31 ar
    53   30   50 1
    54   31   51 1
    55   32   52 1
    56   32   53 1
    57   32   54 1
@<TRIPOS>MOLECULE
ZINC44302773
   44    47     0     0     0
SMALL
USER_CHARGES

@<TRIPOS>ATOM
      1 C1         -0.0167    1.3781    0.0096 C.ar      1 <0>        -0.0823
      2 C2          1.1709    2.0855    0.0021 C.ar      1 <0>        -0.1470
      3 C3          2.3773    1.4107   -0.0130 C.ar      1 <0>        -0.0222
      4 C4          2.3960    0.0285   -0.0201 C.ar      1 <0>        -0.6116
      5 C5          1.2084   -0.6789   -0.0117 C.ar      1 <0>        -0.0222
      6 C6          0.0021   -0.0041    0.0020 C.ar      1 <0>        -0.1470
      7 S1          3.9337   -0.8316   -0.0405 S.o2      1 <0>         2.5985
      8 O1          3.6744   -2.1140   -0.5951 O.2       1 <0>        -1.0269
      9 O2          4.8903    0.0598   -0.5970 O.2       1 <0>        -1.0270
     10 N1          4.3776   -1.0785    1.5357 N.2       1 <0>        -1.0325
     11 C7          5.5626   -1.7411    1.8277 C.ar      1 <0>         0.3355
     12 C8          6.3814   -2.1934    0.8002 C.ar      1 <0>        -0.2613
     13 C9          7.5584   -2.8509    1.0929 C.ar      1 <0>        -0.0356
     14 C10         7.9335   -3.0662    2.4099 C.ar      1 <0>        -0.2326
     15 C11         7.1348   -2.6257    3.4420 C.ar      1 <0>        -0.0392
     16 C12         5.9424   -1.9524    3.1624 C.ar      1 <0>        -0.2199
     17 C13         5.0863   -1.4726    4.2619 C.2       1 <0>         0.5575
     18 O3          4.0472   -0.8916    4.0142 O.2       1 <0>        -0.4174
     19 N2          5.4551   -1.6778    5.5419 N.am      1 <0>        -0.6218
     20 C14         4.6508   -1.2270    6.5749 C.2       1 <0>         0.4163
     21 N3          3.5085   -0.5948    6.4495 N.2       1 <0>        -0.2700
     22 N4          3.0363   -0.3282    7.6162 N.2       1 <0>        -0.2438
     23 C15         3.8586   -0.7798    8.5322 C.2       1 <0>         0.1659
     24 O4          4.8951   -1.3626    7.8917 O.3       1 <0>        -0.2393
     25 C16         3.6815   -0.6750    9.9955 C.ar      1 <0>        -0.0514
     26 C17         2.5485   -0.0519   10.5327 C.ar      1 <0>        -0.0315
     27 C18         2.4302    0.0197   11.9093 C.ar      1 <0>        -0.1690
     28 C19         3.4255   -0.5213   12.7036 C.ar      1 <0>         0.1092
     29 N5          4.4826   -1.1024   12.1696 N.ar      1 <0>        -0.4812
     30 C20         4.6379   -1.2005   10.8655 C.ar      1 <0>         0.1302
     31 H1         -0.9591    1.9053    0.0259 H         1 <0>         0.1228
     32 H2          1.1563    3.1654    0.0076 H         1 <0>         0.1253
     33 H3          3.3051    1.9634   -0.0196 H         1 <0>         0.1348
     34 H4          1.2231   -1.7588   -0.0176 H         1 <0>         0.1349
     35 H5         -0.9258   -0.5567    0.0082 H         1 <0>         0.1253
     36 H6          6.0961   -2.0303   -0.2285 H         1 <0>         0.1069
     37 H7          8.1914   -3.2005    0.2908 H         1 <0>         0.1101
     38 H8          8.8568   -3.5824    2.6278 H         1 <0>         0.1108
     39 H9          7.4319   -2.7966    4.4662 H         1 <0>         0.1071
     40 H10         6.2840   -2.1413    5.7394 H         1 <0>         0.4180
     41 H11         1.7866    0.3625    9.8891 H         1 <0>         0.1521
     42 H12         1.5702    0.4933   12.3592 H         1 <0>         0.1459
     43 H13         3.3356   -0.4668   13.7785 H         1 <0>         0.1620
     44 H14         5.5149   -1.6880   10.4659 H         1 <0>         0.1639
@<TRIPOS>BOND
     1    1    6 ar
     2    1    2 ar
     3    1   31 1
     4    2    3 ar
     5    2   32 1
     6    3    4 ar
     7    3   33 1
     8    4    5 ar
     9    4    7 1
    10    5    6 ar
    11    5   34 1
    12    6   35 1
    13    7    8 2
    14    7    9 2
    15    7   10 1
    16   10   11 1
    17   11   16 ar
    18   11   12 ar
    19   12   13 ar
    20   12   36 1
    21   13   14 ar
    22   13   37 1
    23   14   15 ar
    24   14   38 1
    25   15   16 ar
    26   15   39 1
    27   16   17 1
    28   17   18 2
    29   17   19 am
    30   19   20 1
    31   19   40 1
    32   20   24 1
    33   20   21 2
    34   21   22 1
    35   22   23 2
    36   23   24 1
    37   23   25 1
    38   25   30 ar
    39   25   26 ar
    40   26   27 ar
    41   26   41 1
    42   27   28 ar
    43   27   42 1
    44   28   29 ar
    45   28   43 1
    46   29   30 ar
    47   30   44 1
@<TRIPOS>MOLECULE
ZINC35397287
   49    51     0     0     0
SMALL
USER_CHARGES

@<TRIPOS>ATOM
      1 C1         -0.1123    1.5191    0.0239 C.3       1 <0>        -0.1508
      2 C2         -0.0866   -0.0107    0.0159 C.3       1 <0>         0.0581
      3 O1          0.6210   -0.4812    1.1648 O.3       1 <0>        -0.3540
      4 C3          0.7346   -1.8110    1.3081 C.2       1 <0>         0.4678
      5 O2          0.2493   -2.5510    0.4854 O.2       1 <0>        -0.4954
      6 C4          1.4674   -2.3811    2.4951 C.3       1 <0>        -0.0980
      7 H1          0.9780   -2.0583    3.4141 H         1 <0>         0.1044
      8 C5          2.9157   -1.8867    2.4869 C.3       1 <0>        -0.1062
      9 C6          3.6519   -2.4386    3.7099 C.3       1 <0>        -0.1346
     10 C7          3.6631   -3.9691    3.6465 C.3       1 <0>         0.1420
     11 N1          2.2806   -4.4468    3.5079 N.pl3     1 <0>        -0.6286
     12 C8          1.4531   -3.9110    2.4183 C.3       1 <0>         0.1655
     13 C9          1.7670   -5.3840    4.3871 C.ar      1 <0>         0.3417
     14 C10         1.8167   -6.7506    4.0584 C.ar      1 <0>        -0.1050
     15 C11         1.2907   -7.6826    4.9634 C.ar      1 <0>        -0.0206
     16 C12         0.7421   -7.2116    6.1487 C.ar      1 <0>         0.2654
     17 C13         0.7312   -5.8446    6.3992 C.ar      1 <0>        -0.0749
     18 N2          1.2374   -4.9882    5.5337 N.ar      1 <0>        -0.4120
     19 N3          0.2042   -8.1058    7.0830 N.2       1 <0>        -1.0523
     20 S1         -0.4482   -7.5356    8.4943 S.o2      1 <0>         2.6386
     21 O3          0.6233   -6.9729    9.2389 O.2       1 <0>        -1.0118
     22 O4         -1.6019   -6.7876    8.1353 O.2       1 <0>        -1.0117
     23 C14        -1.0170   -8.9316    9.4066 C.2       1 <0>        -0.6869
     24 C15        -0.3536   -9.6829   10.3192 C.2       1 <0>        -0.0307
     25 C16        -1.0077  -10.7437   10.9170 C.2       1 <0>        -0.1846
     26 C17        -2.2933  -11.0014   10.5730 C.2       1 <0>        -0.1570
     27 S2         -2.6191   -9.7188    9.3747 S.3       1 <0>         0.1516
     28 C18         2.4094   -7.1935    2.7878 C.2       1 <0>         0.5307
     29 O5          2.3529   -8.3723    2.4644 O.co2     1 <0>        -0.6671
     30 O6          2.9592   -6.3834    2.0539 O.co2     1 <0>        -0.6539
     31 H2          0.9089    1.8997    0.0028 H         1 <0>         0.0660
     32 H3         -0.6520    1.8781   -0.8524 H         1 <0>         0.0778
     33 H4         -0.6119    1.8694    0.9271 H         1 <0>         0.0653
     34 H5         -1.1078   -0.3913    0.0370 H         1 <0>         0.0666
     35 H6          0.4131   -0.3609   -0.8873 H         1 <0>         0.0678
     36 H7          3.4115   -2.2302    1.5790 H         1 <0>         0.0754
     37 H8          2.9277   -0.7971    2.5170 H         1 <0>         0.0744
     38 H9          4.6766   -2.0672    3.7159 H         1 <0>         0.0799
     39 H10         3.1421   -2.1158    4.6177 H         1 <0>         0.0615
     40 H11         4.2500   -4.2950    2.7877 H         1 <0>         0.0820
     41 H12         4.0980   -4.3696    4.5622 H         1 <0>         0.0683
     42 H13         0.4303   -4.2726    2.5238 H         1 <0>         0.0738
     43 H14         1.8596   -4.2325    1.4594 H         1 <0>         0.0929
     44 H15         1.3114   -8.7399    4.7443 H         1 <0>         0.1661
     45 H16         0.3046   -5.4775    7.3210 H         1 <0>         0.1603
     46 H17         0.6708   -9.4562   10.5752 H         1 <0>         0.1449
     47 H18        -0.5020  -11.3583   11.6471 H         1 <0>         0.1399
     48 H19        -2.9511  -11.7785   10.9334 H         1 <0>         0.1915
     49 H20         1.2174   -4.0409    5.7413 H         1 <0>         0.4156
@<TRIPOS>BOND
     1    1    2 1
     2    1   31 1
     3    1   32 1
     4    1   33 1
     5    2    3 1
     6    2   34 1
     7    2   35 1
     8    3    4 1
     9    4    5 2
    10    4    6 1
    11    6    7 1
    12    6   12 1
    13    6    8 1
    14    8    9 1
    15    8   36 1
    16    8   37 1
    17    9   10 1
    18    9   38 1
    19    9   39 1
    20   10   11 1
    21   10   40 1
    22   10   41 1
    23   11   12 1
    24   11   13 1
    25   12   42 1
    26   12   43 1
    27   13   18 ar
    28   13   14 ar
    29   14   15 ar
    30   14   28 1
    31   15   16 ar
    32   15   44 1
    33   16   17 ar
    34   16   19 1
    35   17   18 ar
    36   17   45 1
    37   18   49 1
    38   19   20 1
    39   20   21 2
    40   20   22 2
    41   20   23 1
    42   23   27 1
    43   23   24 2
    44   24   25 1
    45   24   46 1
    46   25   26 2
    47   25   47 1
    48   26   27 1
    49   26   48 1
    50   28   29 2
    51   28   30 1
@<TRIPOS>MOLECULE
ZINC12339763
   37    39     0     0     0
SMALL
USER_CHARGES
3-[(1R,4R,5S)-5-bicyclo[2.2.1]hept-2-enyl]-1-[(3,5-dibromo-2-hydroxy-phenyl)methyleneamino]thiourea
@<TRIPOS>ATOM
      1 C1          1.3903   -0.8647    1.1033 C.ar      1 <0>        -0.0706
      2 C2          0.1944   -0.2756    1.4607 C.ar      1 <0>        -0.0902
      3 C3          0.0025    1.0831    1.2745 C.ar      1 <0>        -0.0277
      4 C4          1.0066    1.8627    0.7291 C.ar      1 <0>        -0.1192
      5 C5          2.2131    1.2867    0.3651 C.ar      1 <0>         0.1898
      6 C6          2.4115   -0.0880    0.5517 C.ar      1 <0>        -0.1312
      7 C7          3.6908   -0.7109    0.1675 C.2       1 <0>         0.1646
      8 N1          3.7325   -1.9710   -0.1404 N.2       1 <0>        -0.2698
      9 N2          2.5427   -2.6819   -0.3450 N.pl3     1 <0>        -0.5509
     10 C8          2.5803   -4.0128   -0.5543 C.2       1 <0>         0.5819
     11 S1          1.1264   -4.8814   -0.8043 S.2       1 <0>        -0.6051
     12 N3          3.7625   -4.6598   -0.5669 N.pl3     1 <0>        -0.6531
     13 C9          3.8034   -6.1065   -0.7944 C.3       1 <0>         0.1361
     14 H1          2.9301   -6.5874   -0.3539 H         1 <0>         0.1237
     15 C10         3.8898   -6.4170   -2.3088 C.3       1 <0>        -0.1208
     16 C11         5.2478   -7.1750   -2.4537 C.3       1 <0>        -0.0802
     17 H2          5.6564   -7.2453   -3.4618 H         1 <0>         0.1064
     18 C12         6.1168   -6.4058   -1.3925 C.3       1 <0>        -0.1249
     19 C13         5.1182   -6.7169   -0.2128 C.3       1 <0>        -0.0837
     20 H3          5.4100   -6.3770    0.7809 H         1 <0>         0.1068
     21 C14         4.9465   -8.2281   -0.4088 C.2       1 <0>        -0.1661
     22 C15         5.0221   -8.4920   -1.7009 C.2       1 <0>        -0.1519
     23 O1          3.1996    2.0515   -0.1711 O.3       1 <0>        -0.4746
     24 Br1         0.7325    3.7171    0.4805 Br        1 <0>        -0.0062
     25 Br2        -1.1877   -1.3282    2.2075 Br        1 <0>        -0.0078
     26 H4          1.5363   -1.9246    1.2503 H         1 <0>         0.1538
     27 H5         -0.9345    1.5374    1.5608 H         1 <0>         0.1560
     28 H6          4.5936   -0.1186    0.1421 H         1 <0>         0.2012
     29 H7          1.6918   -2.2162   -0.3360 H         1 <0>         0.4209
     30 H8          4.5863   -4.1677   -0.4253 H         1 <0>         0.4090
     31 H9          3.0607   -7.0538   -2.6173 H         1 <0>         0.0864
     32 H10         3.9022   -5.4944   -2.8891 H         1 <0>         0.0730
     33 H11         7.0948   -6.8634   -1.2429 H         1 <0>         0.0812
     34 H12         6.1905   -5.3396   -1.6070 H         1 <0>         0.0723
     35 H13         4.7890   -8.9529    0.3762 H         1 <0>         0.1333
     36 H14         4.9377   -9.4702   -2.1508 H         1 <0>         0.1320
     37 H15         3.7578    2.4902    0.4854 H         1 <0>         0.4058
@<TRIPOS>BOND
     1    1    6 ar
     2    1    2 ar
     3    1   26 1
     4    2    3 ar
     5    2   25 1
     6    3    4 ar
     7    3   27 1
     8    4    5 ar
     9    4   24 1
    10    5    6 ar
    11    5   23 1
    12    6    7 1
    13    7    8 2
    14    7   28 1
    15    8    9 1
    16    9   10 1
    17    9   29 1
    18   10   11 2
    19   10   12 1
    20   12   13 1
    21   12   30 1
    22   13   14 1
    23   13   19 1
    24   13   15 1
    25   15   16 1
    26   15   31 1
    27   15   32 1
    28   16   17 1
    29   16   22 1
    30   16   18 1
    31   18   19 1
    32   18   33 1
    33   18   34 1
    34   19   20 1
    35   19   21 1
    36   21   22 2
    37   21   35 1
    38   22   36 1
    39   23   37 1
@<TRIPOS>MOLECULE
ZINC14474361
   57    61     0     0     0
SMALL
USER_CHARGES
(3aS,4S,9bS)-N-(3,4-dimethylphenyl)-4-(2-hydroxyphenyl)-3a,4,5,9b-tetrahydro-3H-cyclopenta[c]quinoline-6-carboxamide
@<TRIPOS>ATOM
      1 C1          3.5373   12.6785   -3.3860 C.3       1 <0>        -0.1160
      2 C2          2.5290   11.5917   -3.1153 C.ar      1 <0>        -0.1035
      3 C3          2.7410   10.6951   -2.0838 C.ar      1 <0>        -0.0967
      4 C4          1.8165    9.7014   -1.8297 C.ar      1 <0>        -0.1194
      5 C5          0.6779    9.5960   -2.6185 C.ar      1 <0>         0.1485
      6 C6          0.4678   10.4981   -3.6532 C.ar      1 <0>        -0.1455
      7 C7          1.3937   11.4934   -3.8984 C.ar      1 <0>        -0.0687
      8 C8          1.1665   12.4728   -5.0210 C.3       1 <0>        -0.1172
      9 N1         -0.2575    8.5871   -2.3676 N.am      1 <0>        -0.6746
     10 C9          0.1521    7.3861   -1.9136 C.2       1 <0>         0.5589
     11 O1          1.3403    7.1478   -1.8108 O.2       1 <0>        -0.4983
     12 C10        -0.8399    6.3613   -1.5416 C.ar      1 <0>        -0.1858
     13 C11        -2.2003    6.6390   -1.6617 C.ar      1 <0>        -0.0578
     14 C12        -3.1329    5.6861   -1.3158 C.ar      1 <0>        -0.1611
     15 C13        -2.7154    4.4530   -0.8422 C.ar      1 <0>        -0.0518
     16 C14        -1.3752    4.1632   -0.7110 C.ar      1 <0>        -0.1339
     17 C15        -0.4061    5.1060   -1.0671 C.ar      1 <0>         0.2104
     18 N2          0.9588    4.8811   -1.0063 N.pl3     1 <0>        -0.6092
     19 C16         1.4019    3.5859   -0.4220 C.3       1 <0>         0.1604
     20 H1          1.3747    3.6235    0.6670 H         1 <0>         0.0982
     21 C17         0.4312    2.5388   -0.9267 C.3       1 <0>        -0.1263
     22 H2          0.3196    2.5702   -2.0105 H         1 <0>         0.0913
     23 C18        -0.9084    2.8587   -0.1924 C.3       1 <0>        -0.0307
     24 H3         -0.6870    2.9726    0.8688 H         1 <0>         0.0880
     25 C19        -1.6943    1.6140   -0.3766 C.2       1 <0>        -0.1502
     26 C20        -0.8499    0.5934   -0.4804 C.2       1 <0>        -0.1636
     27 C21         0.5929    1.1016   -0.4191 C.3       1 <0>        -0.0856
     28 C22         2.7968    3.2618   -0.8913 C.ar      1 <0>        -0.1269
     29 C23         2.9876    2.3654   -1.9253 C.ar      1 <0>        -0.0927
     30 C24         4.2668    2.0709   -2.3591 C.ar      1 <0>        -0.1322
     31 C25         5.3588    2.6649   -1.7534 C.ar      1 <0>        -0.0947
     32 C26         5.1736    3.5577   -0.7158 C.ar      1 <0>        -0.1471
     33 C27         3.8905    3.8586   -0.2817 C.ar      1 <0>         0.1372
     34 O2          3.7057    4.7370    0.7387 O.3       1 <0>        -0.4845
     35 H4          3.2809   13.5648   -2.8056 H         1 <0>         0.0693
     36 H5          4.5305   12.3320   -3.1005 H         1 <0>         0.0647
     37 H6          3.5297   12.9249   -4.4478 H         1 <0>         0.0692
     38 H7          3.6285   10.7751   -1.4735 H         1 <0>         0.1243
     39 H8          1.9805    9.0043   -1.0213 H         1 <0>         0.1352
     40 H9         -0.4184   10.4214   -4.2657 H         1 <0>         0.1232
     41 H10         0.6119   13.3330   -4.6460 H         1 <0>         0.0714
     42 H11         2.1276   12.8036   -5.4146 H         1 <0>         0.0719
     43 H12         0.5957   11.9901   -5.8143 H         1 <0>         0.0648
     44 H13        -1.2011    8.7518   -2.5203 H         1 <0>         0.4069
     45 H14        -2.5238    7.6029   -2.0260 H         1 <0>         0.1238
     46 H15        -4.1870    5.8995   -1.4144 H         1 <0>         0.1293
     47 H16        -3.4504    3.7094   -0.5715 H         1 <0>         0.1264
     48 H17         1.3927    5.0456   -1.9023 H         1 <0>         0.3816
     49 H18        -2.7715    1.5482   -0.4170 H         1 <0>         0.1317
     50 H19        -1.1386   -0.4409   -0.5955 H         1 <0>         0.1309
     51 H20         0.9693    1.0881    0.6038 H         1 <0>         0.0820
     52 H21         1.2395    0.5239   -1.0797 H         1 <0>         0.0761
     53 H22         2.1365    1.8973   -2.3975 H         1 <0>         0.1281
     54 H23         4.4137    1.3726   -3.1698 H         1 <0>         0.1261
     55 H24         6.3573    2.4304   -2.0916 H         1 <0>         0.1275
     56 H25         6.0268    4.0208   -0.2425 H         1 <0>         0.1299
     57 H26         3.6171    4.3191    1.6062 H         1 <0>         0.3867
@<TRIPOS>BOND
     1    1    2 1
     2    1   35 1
     3    1   36 1
     4    1   37 1
     5    2    7 ar
     6    2    3 ar
     7    3    4 ar
     8    3   38 1
     9    4    5 ar
    10    4   39 1
    11    5    6 ar
    12    5    9 1
    13    6    7 ar
    14    6   40 1
    15    7    8 1
    16    8   41 1
    17    8   42 1
    18    8   43 1
    19    9   10 am
    20    9   44 1
    21   10   11 2
    22   10   12 1
    23   12   17 ar
    24   12   13 ar
    25   13   14 ar
    26   13   45 1
    27   14   15 ar
    28   14   46 1
    29   15   16 ar
    30   15   47 1
    31   16   23 1
    32   16   17 ar
    33   17   18 1
    34   18   19 1
    35   18   48 1
    36   19   20 1
    37   19   21 1
    38   19   28 1
    39   21   22 1
    40   21   27 1
    41   21   23 1
    42   23   24 1
    43   23   25 1
    44   25   26 2
    45   25   49 1
    46   26   27 1
    47   26   50 1
    48   27   51 1
    49   27   52 1
    50   28   33 ar
    51   28   29 ar
    52   29   30 ar
    53   29   53 1
    54   30   31 ar
    55   30   54 1
    56   31   32 ar
    57   31   55 1
    58   32   33 ar
    59   32   56 1
    60   33   34 1
    61   34   57 1
@<TRIPOS>MOLECULE
ZINC21237230
   62    67     0     0     0
SMALL
USER_CHARGES
(6R,9R)-9-(4-dimethylaminophenyl)-6-(1H-indol-3-yl)-5,6,8,9,10,11-hexahydrobenzo[c][1,5]benzodiazepin-7-one
@<TRIPOS>ATOM
      1 C1          6.6269    6.8467    9.4561 C.3       1 <0>         0.0854
      2 N1          5.4363    6.0543    9.1386 N.pl3     1 <0>        -0.6382
      3 C2          4.6951    5.3844   10.2100 C.3       1 <0>         0.0855
      4 C3          5.0079    5.9376    7.8143 C.ar      1 <0>         0.2161
      5 C4          5.7717    6.4744    6.7857 C.ar      1 <0>        -0.1989
      6 C5          5.3454    6.3568    5.4773 C.ar      1 <0>        -0.0610
      7 C6          4.1596    5.7056    5.1908 C.ar      1 <0>        -0.1412
      8 C7          3.3940    5.1751    6.2128 C.ar      1 <0>        -0.0631
      9 C8          3.8173    5.2841    7.5229 C.ar      1 <0>        -0.1988
     10 C9          3.6976    5.5793    3.7619 C.3       1 <0>        -0.0283
     11 H1          4.4380    6.0870    3.1262 H         1 <0>         0.0871
     12 C10         2.3192    6.2186    3.6050 C.3       1 <0>        -0.1001
     13 C11         1.8435    6.0782    2.1683 C.2       1 <0>         0.2682
     14 C12         2.1879    5.0038    1.4395 C.2       1 <0>        -0.3063
     15 C13         1.7664    4.7261    0.0160 C.3       1 <0>         0.3209
     16 H2          2.6756    4.5330   -0.5723 H         1 <0>         0.0855
     17 N2          1.1452    5.8487   -0.6543 N.pl3     1 <0>        -0.7804
     18 C14        -0.0729    6.3648   -0.2171 C.ar      1 <0>         0.1805
     19 C15        -1.2237    6.2442   -0.9793 C.ar      1 <0>        -0.1224
     20 C16        -2.4319    6.6753   -0.4594 C.ar      1 <0>        -0.1116
     21 C17        -2.4927    7.2224    0.8094 C.ar      1 <0>        -0.1271
     22 C18        -1.3411    7.3634    1.5650 C.ar      1 <0>        -0.1176
     23 C19        -0.1298    6.9486    1.0396 C.ar      1 <0>         0.1158
     24 N3          1.0694    7.1015    1.7259 N.pl3     1 <0>        -0.6970
     25 C20         0.7940    3.5748    0.0213 C.2       1 <0>        -0.1536
     26 C21         0.1301    3.0954    1.0850 C.2       1 <0>         0.0576
     27 N4         -0.6672    2.0502    0.7051 N.pl3     1 <0>        -0.6074
     28 H3         -1.2926    1.5364    1.4500 H         1 <0>         0.4372
     29 C22        -0.5254    1.8200   -0.6451 C.ar      1 <0>         0.1076
     30 C23         0.3934    2.7672   -1.1333 C.ar      1 <0>        -0.0869
     31 C24         0.7312    2.7759   -2.4877 C.ar      1 <0>        -0.0659
     32 C25         0.1666    1.8631   -3.3336 C.ar      1 <0>        -0.1518
     33 C26        -0.7405    0.9270   -2.8570 C.ar      1 <0>        -0.1028
     34 C27        -1.0878    0.9003   -1.5239 C.ar      1 <0>        -0.1336
     35 C28         3.0224    4.0044    1.9936 C.2       1 <0>         0.3958
     36 O1          3.3053    3.0355    1.3164 O.2       1 <0>        -0.4677
     37 C29         3.5705    4.0982    3.3859 C.3       1 <0>        -0.1596
     38 H4          7.0441    7.2688    8.5299 H         1 <0>         0.0797
     39 H5          7.3783    6.2030    9.9368 H         1 <0>         0.0550
     40 H6          6.3522    7.6633   10.1400 H         1 <0>         0.0551
     41 H7          3.8393    4.8428    9.7807 H         1 <0>         0.0793
     42 H8          4.3317    6.1339   10.9285 H         1 <0>         0.0548
     43 H9          5.3578    4.6735   10.7253 H         1 <0>         0.0552
     44 H10         6.6981    6.9828    7.0088 H         1 <0>         0.1239
     45 H11         5.9390    6.7736    4.6771 H         1 <0>         0.1214
     46 H12         2.4660    4.6713    5.9859 H         1 <0>         0.1186
     47 H13         3.2210    4.8657    8.3203 H         1 <0>         0.1232
     48 H14         1.6043    5.7175    4.2742 H         1 <0>         0.0926
     49 H15         2.3783    7.2859    3.8647 H         1 <0>         0.0854
     50 H16         1.6352    6.3093   -1.5248 H         1 <0>         0.4107
     51 H17        -1.1783    5.8182   -1.9707 H         1 <0>         0.1215
     52 H18        -3.3328    6.5835   -1.0479 H         1 <0>         0.1191
     53 H19        -3.4426    7.5413    1.2124 H         1 <0>         0.1211
     54 H20        -1.3876    7.7933    2.5547 H         1 <0>         0.1219
     55 H21         1.3790    8.1420    1.9036 H         1 <0>         0.4246
     56 H22         0.2101    3.4803    2.0908 H         1 <0>         0.1517
     57 H23         1.4361    3.5016   -2.8657 H         1 <0>         0.1159
     58 H24         0.4280    1.8705   -4.3815 H         1 <0>         0.1183
     59 H25        -1.1783    0.2120   -3.5379 H         1 <0>         0.1212
     60 H26        -1.7946    0.1679   -1.1627 H         1 <0>         0.1153
     61 H27         4.5610    3.6220    3.4316 H         1 <0>         0.0958
     62 H28         2.8903    3.5980    4.0909 H         1 <0>         0.0967
@<TRIPOS>BOND
     1    1    2 1
     2    1   38 1
     3    1   39 1
     4    1   40 1
     5    2    3 1
     6    2    4 1
     7    3   41 1
     8    3   42 1
     9    3   43 1
    10    4    9 ar
    11    4    5 ar
    12    5    6 ar
    13    5   44 1
    14    6    7 ar
    15    6   45 1
    16    7    8 ar
    17    7   10 1
    18    8    9 ar
    19    8   46 1
    20    9   47 1
    21   10   11 1
    22   10   37 1
    23   10   12 1
    24   12   13 1
    25   12   48 1
    26   12   49 1
    27   13   24 1
    28   13   14 2
    29   14   15 1
    30   14   35 1
    31   15   16 1
    32   15   17 1
    33   15   25 1
    34   17   18 1
    35   17   50 1
    36   18   23 ar
    37   18   19 ar
    38   19   20 ar
    39   19   51 1
    40   20   21 ar
    41   20   52 1
    42   21   22 ar
    43   21   53 1
    44   22   23 ar
    45   22   54 1
    46   23   24 1
    47   24   55 1
    48   25   30 1
    49   25   26 2
    50   26   27 1
    51   26   56 1
    52   27   28 1
    53   27   29 1
    54   29   34 ar
    55   29   30 ar
    56   30   31 ar
    57   31   32 ar
    58   31   57 1
    59   32   33 ar
    60   32   58 1
    61   33   34 ar
    62   33   59 1
    63   34   60 1
    64   35   36 2
    65   35   37 1
    66   37   61 1
    67   37   62 1
@<TRIPOS>MOLECULE
ZINC14461697
   71    75     0     0     0
SMALL
NO_CHARGES

@<TRIPOS>ATOM
      1 C1         -0.0069    1.5883   -0.1899 C.3       1 <0>        -0.1854
      2 C2          0.0187    0.0586   -0.1718 C.3       1 <0>        -0.0121
      3 N1          0.6916   -0.4341   -1.3811 N.4       1 <0>        -0.2655
      4 C3          2.1013   -0.0215   -1.3597 C.3       1 <0>        -0.0155
      5 C4          2.7712   -0.4260   -2.6744 C.3       1 <0>        -0.1676
      6 C5          0.6150   -1.8295   -1.4212 C.ar      1 <0>        -0.2623
      7 C6          1.1627   -2.5814   -0.3987 C.ar      1 <0>        -0.1497
      8 C7          1.0869   -3.9611   -0.4384 C.ar      1 <0>        -0.0710
      9 C8          0.4631   -4.5888   -1.5004 C.ar      1 <0>        -0.2660
     10 C9         -0.0853   -3.8368   -2.5224 C.ar      1 <0>        -0.0633
     11 C10        -0.0133   -2.4570   -2.4806 C.ar      1 <0>        -0.1558
     12 C11         0.3814   -6.0930   -1.5441 C.3       1 <0>         0.2231
     13 H1          0.5274   -6.5066   -0.5462 H         1 <0>         0.0577
     14 C12         1.4232   -6.6472   -2.4990 C.3       1 <0>        -0.0906
     15 H2          1.2484   -6.3066   -3.5196 H         1 <0>         0.0831
     16 C13         2.8961   -6.4919   -2.0983 C.3       1 <0>        -0.0777
     17 C14         3.5290   -7.7088   -2.7762 C.2       1 <0>        -0.1680
     18 C15         2.6210   -8.6645   -2.9328 C.2       1 <0>        -0.1500
     19 C16         1.3146   -8.1969   -2.3771 C.3       1 <0>        -0.0339
     20 H3          1.3065   -8.4452   -1.3158 H         1 <0>         0.0766
     21 C17         0.0076   -8.6037   -2.9379 C.ar      1 <0>        -0.1534
     22 C18        -0.1659   -9.7830   -3.6272 C.ar      1 <0>        -0.0384
     23 C19        -1.4101  -10.1334   -4.1264 C.ar      1 <0>        -0.1977
     24 C20        -2.4924   -9.3023   -3.9352 C.ar      1 <0>        -0.0383
     25 C21        -2.3360   -8.1010   -3.2418 C.ar      1 <0>        -0.2443
     26 C22        -1.0745   -7.7376   -2.7439 C.ar      1 <0>         0.2904
     27 N2         -0.9272   -6.5180   -2.0869 N.pl3     1 <0>        -0.7106
     28 C23        -3.4949   -7.2138   -3.0329 C.2       1 <0>         0.5745
     29 O1         -3.3856   -6.2254   -2.3330 O.2       1 <0>        -0.5477
     30 N3         -4.6754   -7.4983   -3.6176 N.am      1 <0>        -0.7256
     31 C24        -5.8269   -6.6167   -3.4100 C.3       1 <0>         0.1472
     32 C25        -6.5413   -7.0073   -2.1146 C.3       1 <0>        -0.1291
     33 C26        -7.7439   -6.0867   -1.8978 C.3       1 <0>        -0.1170
     34 C27        -8.7110   -6.2252   -3.0752 C.3       1 <0>        -0.1222
     35 C28        -7.9967   -5.8346   -4.3706 C.3       1 <0>        -0.1156
     36 C29        -6.7941   -6.7552   -4.5874 C.3       1 <0>        -0.1270
     37 H4          1.0143    1.9685   -0.2180 H         1 <0>         0.0707
     38 H5         -0.5470    1.9323   -1.0720 H         1 <0>         0.0696
     39 H6         -0.5062    1.9540    0.7074 H         1 <0>         0.0889
     40 H7          0.5589   -0.2853    0.7102 H         1 <0>         0.1099
     41 H8         -1.0024   -0.3215   -0.1438 H         1 <0>         0.1150
     42 H9          2.1616    1.0601   -1.2389 H         1 <0>         0.0979
     43 H10         2.6099   -0.5088   -0.5278 H         1 <0>         0.1103
     44 H11         2.7110   -1.5077   -2.7951 H         1 <0>         0.0889
     45 H12         2.2626    0.0613   -3.5063 H         1 <0>         0.0615
     46 H13         3.8172   -0.1199   -2.6585 H         1 <0>         0.0800
     47 H14         1.6500   -2.0910    0.4309 H         1 <0>         0.0816
     48 H15         1.5154   -4.5486    0.3601 H         1 <0>         0.0891
     49 H16        -0.5724   -4.3273   -3.3523 H         1 <0>         0.0884
     50 H17        -0.4451   -1.8693   -3.2773 H         1 <0>         0.0820
     51 H18         3.3124   -5.5648   -2.4922 H         1 <0>         0.0715
     52 H19         3.0139   -6.5424   -1.0159 H         1 <0>         0.0757
     53 H20         4.5622   -7.7797   -3.0825 H         1 <0>         0.1260
     54 H21         2.7891   -9.6226   -3.4020 H         1 <0>         0.1253
     55 H22         0.6763  -10.4414   -3.7806 H         1 <0>         0.1207
     56 H23        -1.5318  -11.0603   -4.6672 H         1 <0>         0.1211
     57 H24        -3.4617   -9.5802   -4.3221 H         1 <0>         0.1173
     58 H25        -1.6959   -5.9352   -1.9854 H         1 <0>         0.4187
     59 H26        -4.7626   -8.2867   -4.1759 H         1 <0>         0.3987
     60 H27        -5.4858   -5.5839   -3.3396 H         1 <0>         0.0877
     61 H28        -6.8824   -8.0402   -2.1850 H         1 <0>         0.0626
     62 H29        -5.8522   -6.9087   -1.2758 H         1 <0>         0.0676
     63 H30        -8.2528   -6.3650   -0.9749 H         1 <0>         0.0643
     64 H31        -7.4027   -5.0538   -1.8273 H         1 <0>         0.0637
     65 H32        -9.0522   -7.2580   -3.1456 H         1 <0>         0.0626
     66 H33        -9.5678   -5.5693   -2.9207 H         1 <0>         0.0635
     67 H34        -8.6857   -5.9332   -5.2094 H         1 <0>         0.0670
     68 H35        -7.6556   -4.8017   -4.3002 H         1 <0>         0.0646
     69 H36        -6.2852   -6.4769   -5.5103 H         1 <0>         0.0684
     70 H37        -7.1353   -7.7881   -4.6578 H         1 <0>         0.0677
     71 H38         0.2408   -0.0489   -2.1975 H         1 <0>         0.3998
@<TRIPOS>BOND
     1    1    2 1
     2    1   37 1
     3    1   38 1
     4    1   39 1
     5    2    3 1
     6    2   40 1
     7    2   41 1
     8    3    4 1
     9    3    6 1
    10    3   71 1
    11    4    5 1
    12    4   42 1
    13    4   43 1
    14    5   44 1
    15    5   45 1
    16    5   46 1
    17    6   11 ar
    18    6    7 ar
    19    7    8 ar
    20    7   47 1
    21    8    9 ar
    22    8   48 1
    23    9   10 ar
    24    9   12 1
    25   10   11 ar
    26   10   49 1
    27   11   50 1
    28   12   13 1
    29   12   27 1
    30   12   14 1
    31   14   15 1
    32   14   19 1
    33   14   16 1
    34   16   17 1
    35   16   51 1
    36   16   52 1
    37   17   18 2
    38   17   53 1
    39   18   19 1
    40   18   54 1
    41   19   20 1
    42   19   21 1
    43   21   26 ar
    44   21   22 ar
    45   22   23 ar
    46   22   55 1
    47   23   24 ar
    48   23   56 1
    49   24   25 ar
    50   24   57 1
    51   25   26 ar
    52   25   28 1
    53   26   27 1
    54   27   58 1
    55   28   29 2
    56   28   30 am
    57   30   31 1
    58   30   59 1
    59   31   36 1
    60   31   32 1
    61   31   60 1
    62   32   33 1
    63   32   61 1
    64   32   62 1
    65   33   34 1
    66   33   63 1
    67   33   64 1
    68   34   35 1
    69   34   65 1
    70   34   66 1
    71   35   36 1
    72   35   67 1
    73   35   68 1
    74   36   69 1
    75   36   70 1
@<TRIPOS>MOLECULE
ZINC63349956
   63    66     0     0     0
SMALL
USER_CHARGES

@<TRIPOS>ATOM
      1 C1         -0.0187    1.5258    0.0104 C.3       1 <0>        -0.1450
      2 C2          0.0021   -0.0041    0.0020 C.3       1 <0>        -0.0206
      3 C3          0.7421   -0.5109    1.2415 C.3       1 <0>        -0.1437
      4 C4         -1.4333   -0.5336    0.0129 C.3       1 <0>        -0.1414
      5 C5          0.7074   -0.4901   -1.2379 C.ar      1 <0>        -0.0924
      6 C6          1.2167    0.4191   -2.1447 C.ar      1 <0>        -0.1095
      7 C7          1.8639   -0.0262   -3.2825 C.ar      1 <0>        -0.1175
      8 C8          2.0032   -1.3819   -3.5157 C.ar      1 <0>        -0.0773
      9 C9          1.4957   -2.2951   -2.6119 C.ar      1 <0>        -0.0877
     10 C10         0.8509   -1.8508   -1.4667 C.ar      1 <0>         0.1301
     11 O1          0.3561   -2.7472   -0.5730 O.3       1 <0>        -0.4830
     12 C11         1.6478   -3.7726   -2.8667 C.3       1 <0>        -0.0220
     13 C12         2.3955   -3.9886   -4.1840 C.3       1 <0>        -0.1484
     14 C13         2.4380   -4.4089   -1.7215 C.3       1 <0>        -0.1433
     15 C14         0.2644   -4.4202   -2.9534 C.3       1 <0>        -0.1406
     16 C15         2.4181    0.9679   -4.2704 C.3       1 <0>         0.1440
     17 H1          2.5418    1.9366   -3.7865 H         1 <0>         0.0627
     18 C16         1.4619    1.1028   -5.4578 C.3       1 <0>         0.0925
     19 H2          1.2437    0.1239   -5.8847 H         1 <0>         0.1757
     20 C17         2.1716    1.9853   -6.4783 C.2       1 <0>         0.1034
     21 C18         1.3409    2.9805   -6.7557 C.ar      1 <0>        -0.1940
     22 C19         1.4250    4.0900   -7.7192 C.ar      1 <0>         0.0228
     23 C20         0.3776    4.9562   -7.7296 C.ar      1 <0>        -0.1790
     24 C21        -0.7320    4.8317   -6.8877 C.ar      1 <0>         0.0497
     25 C22        -0.8956    3.8400   -5.9762 C.ar      1 <0>        -0.2111
     26 C23         0.1377    2.8638   -5.8757 C.ar      1 <0>         0.3267
     27 N1          0.2230    1.7954   -5.1067 N.pl3     1 <0>        -0.5872
     28 C24         3.5892    1.7072   -6.9158 C.3       1 <0>        -0.0693
     29 C25         4.3985    1.4731   -5.6269 C.3       1 <0>         0.0245
     30 H3          4.4990    2.4148   -5.0873 H         1 <0>         0.0486
     31 N2          3.7177    0.4952   -4.7734 N.3       1 <0>        -0.6570
     32 C26         5.7672    0.9533   -5.9839 C.2       1 <0>         0.4988
     33 O2          6.6843    1.7333   -6.1767 O.co2     1 <0>        -0.6783
     34 O3          5.9575   -0.2471   -6.0800 O.co2     1 <0>        -0.6574
     35 H4          1.0039    1.9031    0.0027 H         1 <0>         0.0586
     36 H5         -0.5459    1.8868   -0.8726 H         1 <0>         0.0515
     37 H6         -0.5289    1.8773    0.9072 H         1 <0>         0.0617
     38 H7          0.2319   -0.1594    2.1383 H         1 <0>         0.0556
     39 H8          0.7568   -1.6008    1.2356 H         1 <0>         0.0766
     40 H9          1.7647   -0.1336    1.2338 H         1 <0>         0.0525
     41 H10        -1.9605   -0.1726   -0.8702 H         1 <0>         0.0509
     42 H11        -1.4185   -1.6235    0.0069 H         1 <0>         0.0597
     43 H12        -1.9435   -0.1821    0.9097 H         1 <0>         0.0621
     44 H13         1.1089    1.4786   -1.9650 H         1 <0>         0.1251
     45 H14         2.5089   -1.7272   -4.4054 H         1 <0>         0.1501
     46 H15        -0.5564   -3.0147   -0.7485 H         1 <0>         0.3829
     47 H16         3.3811   -3.5272   -4.1222 H         1 <0>         0.0676
     48 H17         2.5055   -5.0573   -4.3683 H         1 <0>         0.0604
     49 H18         1.8326   -3.5353   -4.9999 H         1 <0>         0.0556
     50 H19         1.9053   -4.2550   -0.7830 H         1 <0>         0.0732
     51 H20         2.5480   -5.4776   -1.9057 H         1 <0>         0.0563
     52 H21         3.4236   -3.9475   -1.6597 H         1 <0>         0.0544
     53 H22        -0.2985   -3.9669   -3.7693 H         1 <0>         0.0516
     54 H23         0.3744   -5.4889   -3.1377 H         1 <0>         0.0628
     55 H24        -0.2683   -4.2663   -2.0150 H         1 <0>         0.0559
     56 H25         2.2709    4.2092   -8.3801 H         1 <0>         0.1684
     57 H26         0.4038    5.7833   -8.4235 H         1 <0>         0.1497
     58 H27        -1.5111    5.5753   -6.9682 H         1 <0>         0.1508
     59 H28        -1.7748    3.7925   -5.3507 H         1 <0>         0.1617
     60 H29         3.6196    0.8170   -7.5440 H         1 <0>         0.1313
     61 H30         3.9887    2.5639   -7.4585 H         1 <0>         0.1123
     62 H31         4.3136    0.2002   -4.0145 H         1 <0>         0.3765
     63 H32        -0.4110    1.5155   -4.4279 H         1 <0>         0.4507
@<TRIPOS>BOND
     1    1    2 1
     2    1   35 1
     3    1   36 1
     4    1   37 1
     5    2    3 1
     6    2    4 1
     7    2    5 1
     8    3   38 1
     9    3   39 1
    10    3   40 1
    11    4   41 1
    12    4   42 1
    13    4   43 1
    14    5   10 ar
    15    5    6 ar
    16    6    7 ar
    17    6   44 1
    18    7    8 ar
    19    7   16 1
    20    8    9 ar
    21    8   45 1
    22    9   10 ar
    23    9   12 1
    24   10   11 1
    25   11   46 1
    26   12   13 1
    27   12   14 1
    28   12   15 1
    29   13   47 1
    30   13   48 1
    31   13   49 1
    32   14   50 1
    33   14   51 1
    34   14   52 1
    35   15   53 1
    36   15   54 1
    37   15   55 1
    38   16   17 1
    39   16   31 1
    40   16   18 1
    41   18   19 1
    42   18   27 1
    43   18   20 1
    44   20   21 2
    45   20   28 1
    46   21   26 ar
    47   21   22 ar
    48   22   23 ar
    49   22   56 1
    50   23   24 ar
    51   23   57 1
    52   24   25 ar
    53   24   58 1
    54   25   26 ar
    55   25   59 1
    56   26   27 2
    57   27   63 1
    58   28   29 1
    59   28   60 1
    60   28   61 1
    61   29   30 1
    62   29   31 1
    63   29   32 1
    64   31   62 1
    65   32   33 2
    66   32   34 1
@<TRIPOS>MOLECULE
ZINC05426351
   33    35     0     0     0
SMALL
USER_CHARGES
3-(3-amino-5-sulfanyl-2,4,7,8,9-pentazabicyclo[4.3.0]nona-1,3,5,7-tetraen-9-yl)-5-(hydroxymethyl)cyclopentane-1,2-diol
@<TRIPOS>ATOM
      1 C1          1.6443    5.4356    1.2467 C.3       1 <0>        -0.1237
      2 C2          2.2406    6.7906    0.7912 C.3       1 <0>        -0.0800
      3 H1          3.3259    6.7832    0.8927 H         1 <0>         0.0988
      4 C3          1.8380    6.9011   -0.6939 C.3       1 <0>         0.0845
      5 H2          0.9248    7.4883   -0.7905 H         1 <0>         0.0735
      6 C4          1.5999    5.4632   -1.1941 C.3       1 <0>         0.0583
      7 H3          2.2889    5.2289   -2.0056 H         1 <0>         0.0707
      8 C5          1.8626    4.5323    0.0076 C.3       1 <0>         0.1809
      9 H4          2.8862    4.1583   -0.0162 H         1 <0>         0.1212
     10 N1          0.9110    3.4185    0.0110 N.pl3     1 <0>        -0.3857
     11 C6          1.2138    2.0854    0.0017 C.ar      1 <0>         0.3479
     12 C7         -0.0171    1.4068    0.0098 C.ar      1 <0>        -0.1587
     13 C8          0.0021   -0.0041    0.0020 C.ar      1 <0>         0.4529
     14 N2          1.1765   -0.6234   -0.0125 N.ar      1 <0>        -0.6019
     15 C9          2.3141    0.0602   -0.0197 C.ar      1 <0>         0.6150
     16 N3          2.3434    1.3826   -0.0129 N.ar      1 <0>        -0.6384
     17 N4          3.5111   -0.6346   -0.0354 N.pl3     1 <0>        -0.8234
     18 N5         -0.9954    2.3283    0.0188 N.2       1 <0>        -0.1624
     19 N6         -0.4889    3.5119    0.0244 N.2       1 <0>        -0.0256
     20 O1          0.2501    5.3179   -1.6400 O.3       1 <0>        -0.5283
     21 O2          2.8921    7.5091   -1.4430 O.3       1 <0>        -0.5532
     22 C10         1.6364    7.9404    1.5997 C.3       1 <0>         0.0846
     23 O3          2.2835    9.1640    1.2446 O.3       1 <0>        -0.5664
     24 H5          0.5819    5.5363    1.4689 H         1 <0>         0.0930
     25 H6          2.1826    5.0441    2.1098 H         1 <0>         0.0845
     26 H7          3.5088   -1.6046   -0.0409 H         1 <0>         0.4122
     27 H8          4.3523   -0.1516   -0.0408 H         1 <0>         0.4055
     28 H9          0.0227    5.8781   -2.3947 H         1 <0>         0.3715
     29 H10         2.6992    7.6067   -2.3855 H         1 <0>         0.3745
     30 H11         0.5709    8.0167    1.3826 H         1 <0>         0.0503
     31 H12         1.7776    7.7501    2.6636 H         1 <0>         0.0514
     32 H13         1.9502    9.9375    1.7196 H         1 <0>         0.3766
     33 S1         -1.5005   -0.9244    0.0109 S.3       1 <0>        -0.7601
@<TRIPOS>BOND
     1    1    8 1
     2    1    2 1
     3    1   24 1
     4    1   25 1
     5    2    3 1
     6    2    4 1
     7    2   22 1
     8    4    5 1
     9    4    6 1
    10    4   21 1
    11    6    7 1
    12    6    8 1
    13    6   20 1
    14    8    9 1
    15    8   10 1
    16   10   19 1
    17   10   11 1
    18   11   16 ar
    19   11   12 ar
    20   12   13 ar
    21   12   18 1
    22   13   14 ar
    23   13   33 1
    24   14   15 ar
    25   15   16 ar
    26   15   17 1
    27   17   26 1
    28   17   27 1
    29   18   19 2
    30   20   28 1
    31   21   29 1
    32   22   23 1
    33   22   30 1
    34   22   31 1
    35   23   32 1
@<TRIPOS>MOLECULE
ZINC16999801
   34    35     0     0     0
SMALL
USER_CHARGES
benzyl N-[(1R)-3-amino-3-oxo-1-(1H-tetrazol-5-yl)propyl]carbamate
@<TRIPOS>ATOM
      1 C1         -6.9246   -0.9386    0.0298 C.ar      1 <0>        -0.1138
      2 C2         -6.3766   -0.5167    1.2267 C.ar      1 <0>        -0.1246
      3 C3         -5.2916    0.3399    1.2262 C.ar      1 <0>        -0.0933
      4 C4         -4.7549    0.7748    0.0288 C.ar      1 <0>        -0.0911
      5 C5         -5.3065    0.3574   -1.1680 C.ar      1 <0>        -0.0941
      6 C6         -6.3882   -0.5033   -1.1676 C.ar      1 <0>        -0.1259
      7 C7         -3.5724    1.7090    0.0283 C.3       1 <0>         0.1283
      8 O1         -2.3440    0.9348    0.0182 O.3       1 <0>        -0.3706
      9 C8         -1.1873    1.6238    0.0165 C.2       1 <0>         0.6528
     10 O2         -1.2038    2.8388    0.0232 O.2       1 <0>        -0.5618
     11 N1         -0.0111    0.9658    0.0074 N.am      1 <0>        -0.6821
     12 C9          1.2475    1.7155   -0.0006 C.3       1 <0>         0.2999
     13 H1          1.1233    2.6278   -0.5840 H         1 <0>         0.1051
     14 C10         2.3488    0.8566   -0.6254 C.3       1 <0>        -0.1407
     15 C11         2.0264    0.6033   -2.0756 C.2       1 <0>         0.5154
     16 O3          1.0154    1.0644   -2.5615 O.2       1 <0>        -0.5315
     17 N2          2.8616   -0.1356   -2.8325 N.am      1 <0>        -0.8604
     18 C12         1.6293    2.0714    1.4131 C.2       1 <0>         0.0319
     19 N3          2.0664    3.1772    3.1695 N.2       1 <0>        -0.1843
     20 N4          2.2112    1.9245    3.4283 N.2       1 <0>        -0.2106
     21 N5          1.9493    1.2361    2.3711 N.2       1 <0>        -0.3718
     22 H2         -7.7721   -1.6081    0.0302 H         1 <0>         0.1217
     23 H3         -6.7959   -0.8565    2.1621 H         1 <0>         0.1240
     24 H4         -4.8635    0.6696    2.1613 H         1 <0>         0.1257
     25 H5         -4.8900    0.7007   -2.1034 H         1 <0>         0.1251
     26 H6         -6.8166   -0.8327   -2.1027 H         1 <0>         0.1234
     27 H7         -3.6016    2.3326    0.9218 H         1 <0>         0.0777
     28 H8         -3.6100    2.3422   -0.8581 H         1 <0>         0.0782
     29 H9          0.0021   -0.0041    0.0020 H         1 <0>         0.3990
     30 H10         3.3028    1.3785   -0.5511 H         1 <0>         0.1118
     31 H11         2.4125   -0.0940   -0.0960 H         1 <0>         0.1084
     32 H12         3.6703   -0.5043   -2.4438 H         1 <0>         0.4008
     33 H13         2.6541   -0.2986   -3.7659 H         1 <0>         0.3976
     34 N6          1.7160    3.2962    1.9424 N.2       1 <0>        -0.3702
@<TRIPOS>BOND
     1    1    6 ar
     2    1    2 ar
     3    1   22 1
     4    2    3 ar
     5    2   23 1
     6    3    4 ar
     7    3   24 1
     8    4    5 ar
     9    4    7 1
    10    5    6 ar
    11    5   25 1
    12    6   26 1
    13    7    8 1
    14    7   27 1
    15    7   28 1
    16    8    9 1
    17    9   10 2
    18    9   11 am
    19   11   12 1
    20   11   29 1
    21   12   13 1
    22   12   14 1
    23   12   18 1
    24   14   15 1
    25   14   30 1
    26   14   31 1
    27   15   16 2
    28   15   17 am
    29   17   32 1
    30   17   33 1
    31   18   21 2
    32   18   34 1
    33   19   20 2
    34   19   34 1
    35   20   21 1
@<TRIPOS>MOLECULE
ZINC40598398
   39    39     0     0     0
SMALL
USER_CHARGES

@<TRIPOS>ATOM
      1 C1         -0.0188    1.5335    0.0105 C.3       1 <0>        -0.1488
      2 C2          1.4526    2.0379   -0.0009 C.3       1 <0>        -0.5726
      3 S1          2.2278    0.8424    1.1674 S.o2      1 <0>         2.3645
      4 O1          2.1984    1.3913    2.4777 O.2       1 <0>        -0.9364
      5 O2          3.4629    0.3986    0.6227 O.2       1 <0>        -0.9514
      6 C3          1.0012   -0.5241    1.0635 C.3       1 <0>        -0.5650
      7 C4          0.0021   -0.0041    0.0020 C.3       1 <0>         0.1788
      8 H1          0.3055   -0.3564   -0.9838 H         1 <0>         0.1028
      9 N1         -1.3385   -0.5103    0.3067 N.am      1 <0>        -0.5883
     10 C5         -2.0398   -1.3562   -0.6623 C.3       1 <0>         0.0348
     11 C6         -1.7082   -2.8025   -0.3992 C.2       1 <0>         0.4745
     12 O3         -0.9559   -3.0993    0.5131 O.co2     1 <0>        -0.6731
     13 O4         -2.1923   -3.6759   -1.0988 O.co2     1 <0>        -0.6977
     14 C7         -1.9266   -0.1980    1.4784 C.2       1 <0>         0.7174
     15 O5         -1.3446    0.5040    2.2826 O.2       1 <0>        -0.6038
     16 N2         -3.1599   -0.6637    1.7587 N.am      1 <0>        -0.7433
     17 C8         -3.7992   -0.3241    3.0324 C.3       1 <0>         0.1410
     18 C9         -5.1825   -0.9746    3.0981 C.3       1 <0>        -0.1204
     19 C10        -5.8501   -0.6200    4.4283 C.3       1 <0>        -0.1367
     20 C11        -7.2126   -1.2606    4.4930 C.2       1 <0>         0.5152
     21 O6         -7.6105   -1.9345    3.5664 O.2       1 <0>        -0.5390
     22 N3         -7.9890   -1.0847    5.5805 N.am      1 <0>        -0.8604
     23 H2         -0.5232    1.8899    0.9086 H         1 <0>         0.1108
     24 H3         -0.5402    1.8994   -0.8740 H         1 <0>         0.0935
     25 H4          1.8896    1.9563   -0.9961 H         1 <0>         0.1341
     26 H5          1.5223    3.0584    0.3755 H         1 <0>         0.1364
     27 H6          1.4768   -1.4457    0.7279 H         1 <0>         0.1436
     28 H7          0.5045   -0.6713    2.0225 H         1 <0>         0.1549
     29 H8         -3.1149   -1.2063   -0.5644 H         1 <0>         0.0729
     30 H9         -1.7261   -1.0893   -1.6716 H         1 <0>         0.0794
     31 H10        -3.6242   -1.2238    1.1171 H         1 <0>         0.4006
     32 H11        -3.1860   -0.6904    3.8557 H         1 <0>         0.0649
     33 H12        -3.9025    0.7582    3.1098 H         1 <0>         0.0633
     34 H13        -5.7957   -0.6083    2.2747 H         1 <0>         0.0762
     35 H14        -5.0791   -2.0569    3.0206 H         1 <0>         0.0800
     36 H15        -5.2369   -0.9862    5.2516 H         1 <0>         0.0991
     37 H16        -5.9535    0.4624    4.5057 H         1 <0>         0.0976
     38 H17        -7.6708   -0.5458    6.3216 H         1 <0>         0.4011
     39 H18        -8.8660   -1.4971    5.6222 H         1 <0>         0.3995
@<TRIPOS>BOND
     1    1    7 1
     2    1    2 1
     3    1   23 1
     4    1   24 1
     5    2    3 1
     6    2   25 1
     7    2   26 1
     8    3    4 2
     9    3    5 2
    10    3    6 1
    11    6    7 1
    12    6   27 1
    13    6   28 1
    14    7    8 1
    15    7    9 1
    16    9   10 1
    17    9   14 am
    18   10   11 1
    19   10   29 1
    20   10   30 1
    21   11   12 2
    22   11   13 1
    23   14   15 2
    24   14   16 am
    25   16   17 1
    26   16   31 1
    27   17   18 1
    28   17   32 1
    29   17   33 1
    30   18   19 1
    31   18   34 1
    32   18   35 1
    33   19   20 1
    34   19   36 1
    35   19   37 1
    36   20   21 2
    37   20   22 am
    38   22   38 1
    39   22   39 1
@<TRIPOS>MOLECULE
ZINC36498619
   33    35     0     0     0
SMALL
USER_CHARGES

@<TRIPOS>ATOM
      1 C1         -0.1771    1.1756    0.6577 C.ar      1 <0>        -0.0079
      2 C2          0.9794    1.9315    0.6466 C.ar      1 <0>        -0.2344
      3 C3          2.2113    1.3102    0.5031 C.ar      1 <0>         0.3159
      4 C4          2.2787   -0.0694    0.3711 C.ar      1 <0>        -0.2618
      5 C5          1.1197   -0.8205    0.3828 C.ar      1 <0>        -0.0110
      6 C6         -0.1072   -0.1988    0.5259 C.ar      1 <0>        -0.1720
      7 N1         -1.3476   -1.0062    0.5386 N.pl3     1 <0>         0.0691
      8 O1         -2.4207   -0.4637    0.6641 O.2       1 <0>        -0.2065
      9 O2         -1.2877   -2.2082    0.4234 O.3       1 <0>        -0.2182
     10 C7          3.6154   -0.7475    0.2146 C.3       1 <0>         0.1761
     11 H1          4.3458   -0.2747    0.8710 H         1 <0>         0.1989
     12 C8          4.0742   -0.6396   -1.2156 C.2       1 <0>        -0.0195
     13 C9          4.6328   -1.6625   -1.9027 C.2       1 <0>        -0.0011
     14 N2          4.9161   -1.2303   -3.1306 N.2       1 <0>        -0.4739
     15 H2          3.6822    1.3092   -1.8511 H         1 <0>         0.4320
     16 C10         4.5580    0.0240   -3.2358 C.2       1 <0>         0.1791
     17 N3          4.0285    0.4268   -2.0566 N.pl3     1 <0>        -0.5225
     18 C11         4.8617   -3.0255   -1.2959 C.3       1 <0>        -0.0299
     19 C12         4.7321   -2.8853    0.2276 C.3       1 <0>        -0.0555
     20 H3          4.7145   -3.8757    0.6825 H         1 <0>         0.1383
     21 N4          3.4907   -2.1740    0.5577 N.4       1 <0>        -0.4757
     22 C13         5.9086   -2.1094    0.7614 C.2       1 <0>         0.4983
     23 O3          5.7411   -1.2662    1.6259 O.co2     1 <0>        -0.6631
     24 O4          7.0279   -2.3249    0.3288 O.co2     1 <0>        -0.6371
     25 O5          3.3502    2.0516    0.4915 O.3       1 <0>        -0.6497
     26 H4         -1.1362    1.6584    0.7739 H         1 <0>         0.1320
     27 H5          0.9243    3.0052    0.7492 H         1 <0>         0.1301
     28 H6          1.1716   -1.8944    0.2797 H         1 <0>         0.1166
     29 H7          4.6675    0.6372   -4.1181 H         1 <0>         0.2121
     30 H8          4.1137   -3.7258   -1.6675 H         1 <0>         0.0845
     31 H9          5.8603   -3.3805   -1.5507 H         1 <0>         0.1240
     32 H10         3.3047   -2.2654    1.5452 H         1 <0>         0.4297
     33 H11         2.7266   -2.5777    0.0369 H         1 <0>         0.4032
@<TRIPOS>BOND
     1    1    6 ar
     2    1    2 ar
     3    1   26 1
     4    2    3 ar
     5    2   27 1
     6    3    4 ar
     7    3   25 1
     8    4    5 ar
     9    4   10 1
    10    5    6 ar
    11    5   28 1
    12    6    7 1
    13    7    8 2
    14    7    9 1
    15   10   11 1
    16   10   21 1
    17   10   12 1
    18   12   13 2
    19   12   17 1
    20   13   14 1
    21   13   18 1
    22   14   16 2
    23   15   17 1
    24   16   29 1
    25   16   17 1
    26   18   19 1
    27   18   30 1
    28   18   31 1
    29   19   20 1
    30   19   21 1
    31   19   22 1
    32   21   32 1
    33   21   33 1
    34   22   23 2
    35   22   24 1
@<TRIPOS>MOLECULE
ZINC65740542
   38    39     0     0     0
SMALL
USER_CHARGES

@<TRIPOS>ATOM
      1 C1         -2.0109   -1.4679   -1.1334 C.3       1 <0>        -0.1270
      2 C2         -0.6032   -1.4467   -0.5960 C.2       1 <0>         0.1480
      3 C3          0.3652   -0.7891   -1.2772 C.2       1 <0>        -0.0560
      4 C4          1.6859   -0.7759   -0.7611 C.2       1 <0>         0.3768
      5 O1          2.5814   -0.1903   -1.3534 O.2       1 <0>        -0.5282
      6 C5          1.9459   -1.4527    0.4514 C.2       1 <0>        -0.2920
      7 C6          0.9354   -2.0907    1.0834 C.2       1 <0>         0.1393
      8 N1         -0.3182   -2.0828    0.5703 N.pl3     1 <0>        -0.4673
      9 C7         -1.3895   -2.7800    1.2861 C.3       1 <0>         0.0548
     10 O2          0.0744   -0.1492   -2.4427 O.3       1 <0>        -0.3223
     11 C8          0.2411    1.2699   -2.4628 C.3       1 <0>         0.2066
     12 H1          1.1860    1.5316   -1.9866 H         1 <0>         0.1120
     13 C9          0.2460    1.7629   -3.9121 C.3       1 <0>         0.1121
     14 H2          1.0398    1.2605   -4.4651 H         1 <0>         0.0688
     15 C10        -1.1069    1.4446   -4.5561 C.3       1 <0>         0.1221
     16 H3         -1.2528    0.3647   -4.5832 H         1 <0>         0.0812
     17 C11        -2.2199    2.0913   -3.7258 C.3       1 <0>         0.0670
     18 H4         -3.1897    1.8239   -4.1455 H         1 <0>         0.0597
     19 C12        -2.1295    1.5856   -2.2836 C.3       1 <0>        -0.0147
     20 H5         -2.2877    0.5073   -2.2659 H         1 <0>         0.0676
     21 O3         -0.8363    1.8863   -1.7547 O.3       1 <0>        -0.3339
     22 C13        -3.1846    2.2621   -1.4468 C.2       1 <0>         0.5031
     23 O4         -4.3653    2.0602   -1.6744 O.co2     1 <0>        -0.6924
     24 O5         -2.8575    3.0113   -0.5422 O.co2     1 <0>        -0.6646
     25 O6         -2.0664    3.5119   -3.7455 O.3       1 <0>        -0.5283
     26 O7         -1.1371    1.9646   -5.8867 O.3       1 <0>        -0.5473
     27 O8          0.4672    3.1744   -3.9356 O.3       1 <0>        -0.5077
     28 H6         -2.5759   -0.6400   -0.7050 H         1 <0>         0.0986
     29 H7         -1.9871   -1.3686   -2.2186 H         1 <0>         0.0961
     30 H8         -2.4880   -2.4106   -0.8652 H         1 <0>         0.0768
     31 H9          2.9419   -1.4605    0.8690 H         1 <0>         0.1495
     32 H10         1.1291   -2.6095    2.0106 H         1 <0>         0.1652
     33 H11        -1.4434   -3.8131    0.9428 H         1 <0>         0.0782
     34 H12        -1.1825   -2.7631    2.3561 H         1 <0>         0.0915
     35 H13        -2.3398   -2.2826    1.0920 H         1 <0>         0.0953
     36 H14        -2.7388    3.9872   -3.2386 H         1 <0>         0.3725
     37 H15        -1.9668    1.7989   -6.3550 H         1 <0>         0.3726
     38 H16         1.3056    3.4479   -3.5389 H         1 <0>         0.3663
@<TRIPOS>BOND
     1    1    2 1
     2    1   28 1
     3    1   29 1
     4    1   30 1
     5    2    8 1
     6    2    3 2
     7    3    4 1
     8    3   10 1
     9    4    5 2
    10    4    6 1
    11    6    7 2
    12    6   31 1
    13    7    8 1
    14    7   32 1
    15    8    9 1
    16    9   33 1
    17    9   34 1
    18    9   35 1
    19   10   11 1
    20   11   12 1
    21   11   21 1
    22   11   13 1
    23   13   14 1
    24   13   15 1
    25   13   27 1
    26   15   16 1
    27   15   17 1
    28   15   26 1
    29   17   18 1
    30   17   19 1
    31   17   25 1
    32   19   20 1
    33   19   21 1
    34   19   22 1
    35   22   23 2
    36   22   24 1
    37   25   36 1
    38   26   37 1
    39   27   38 1
@<TRIPOS>MOLECULE
ZINC37732048
   32    32     0     0     0
SMALL
USER_CHARGES

@<TRIPOS>ATOM
      1 C1         -0.0187    1.5258    0.0104 C.3       1 <0>        -0.1765
      2 C2          0.0021   -0.0041    0.0020 C.3       1 <0>         0.1146
      3 N1          0.6878   -0.4765   -1.2033 N.pl3     1 <0>        -0.9703
      4 C3          2.1478   -0.5966   -1.2159 C.3       1 <0>         0.0978
      5 C4          2.5471   -1.9310   -0.6407 C.2       1 <0>         0.5064
      6 O1          1.6959   -2.7055   -0.2578 O.2       1 <0>        -0.5359
      7 N2          3.8501   -2.2637   -0.5516 N.am      1 <0>        -0.7370
      8 C5          4.2383   -3.5610    0.0076 C.3       1 <0>         0.0906
      9 S1         -0.1875   -0.8749   -2.5515 S.o2      1 <0>         2.7098
     10 O2          0.6099   -1.7823   -3.2999 O.2       1 <0>        -0.8703
     11 O3         -1.4963   -1.2007   -2.1043 O.2       1 <0>        -0.9654
     12 C6         -0.3372    0.5856   -3.5257 C.2       1 <0>        -0.4566
     13 C7          0.5598    1.0077   -4.5348 C.2       1 <0>        -0.2025
     14 C8          0.0693    2.1965   -5.0433 C.2       1 <0>         0.0646
     15 N3         -1.0616    2.4800   -4.3803 N.pl3     1 <0>        -0.4613
     16 N4         -1.2973    1.4644   -3.4472 N.2       1 <0>        -0.2165
     17 H1         -1.6237    3.2569   -4.5258 H         1 <0>         0.4337
     18 C9          1.7833    0.3135   -4.9620 C.2       1 <0>         0.5299
     19 O4          2.4764    0.7873   -5.8521 O.co2     1 <0>        -0.6939
     20 O5          2.1085   -0.7380   -4.4276 O.co2     1 <0>        -0.6355
     21 H2          1.0039    1.9031    0.0027 H         1 <0>         0.0572
     22 H3         -0.5459    1.8868   -0.8726 H         1 <0>         0.0596
     23 H4         -0.5289    1.8773    0.9072 H         1 <0>         0.0648
     24 H5          0.5293   -0.3651    0.8851 H         1 <0>         0.0796
     25 H6         -1.0205   -0.3814    0.0098 H         1 <0>         0.0926
     26 H7          2.5098   -0.5199   -2.2412 H         1 <0>         0.1450
     27 H8          2.5833    0.2026   -0.6162 H         1 <0>         0.1004
     28 H9          4.5309   -1.6443   -0.8578 H         1 <0>         0.4034
     29 H10         3.8763   -3.6376    1.0329 H         1 <0>         0.0545
     30 H11         3.8028   -4.3602   -0.5921 H         1 <0>         0.0588
     31 H12         5.3246   -3.6503   -0.0018 H         1 <0>         0.0714
     32 H13         0.5151    2.7880   -5.8294 H         1 <0>         0.1870
@<TRIPOS>BOND
     1    1    2 1
     2    1   21 1
     3    1   22 1
     4    1   23 1
     5    2    3 1
     6    2   24 1
     7    2   25 1
     8    3    4 1
     9    3    9 1
    10    4    5 1
    11    4   26 1
    12    4   27 1
    13    5    6 2
    14    5    7 am
    15    7    8 1
    16    7   28 1
    17    8   29 1
    18    8   30 1
    19    8   31 1
    20    9   10 2
    21    9   11 2
    22    9   12 1
    23   12   13 1
    24   12   16 2
    25   13   18 1
    26   13   14 2
    27   14   32 1
    28   14   15 1
    29   15   17 1
    30   15   16 1
    31   18   19 2
    32   18   20 1
@<TRIPOS>MOLECULE
ZINC43701118
   38    39     0     0     0
SMALL
USER_CHARGES

@<TRIPOS>ATOM
      1 C1          0.0710    1.9680    0.2591 C.3       1 <0>        -0.1345
      2 C2          1.5258    2.3732    0.0113 C.3       1 <0>        -0.1015
      3 C3          2.0036    1.7790   -1.3157 C.3       1 <0>        -0.1223
      4 H1          1.3642    2.1334   -2.1242 H         1 <0>         0.0956
      5 C4          1.9335    0.2505   -1.2409 C.3       1 <0>         0.1397
      6 N1          0.5698   -0.1422   -0.8601 N.am      1 <0>        -0.6261
      7 C5         -0.0211    0.4416    0.3518 C.3       1 <0>         0.1096
      8 C6         -0.1259   -1.0210   -1.6085 C.2       1 <0>         0.7088
      9 O1          0.4064   -1.5694   -2.5542 O.2       1 <0>        -0.5878
     10 N2         -1.4117   -1.2918   -1.3088 N.am      1 <0>        -0.8686
     11 C7          3.4255    2.2059   -1.5749 C.2       1 <0>         0.5191
     12 O2          4.1487    2.5011   -0.6472 O.2       1 <0>        -0.5362
     13 N3          3.8934    2.2595   -2.8377 N.am      1 <0>        -0.6096
     14 C8          3.0701    1.8072   -3.9704 C.3       1 <0>         0.0700
     15 C9          3.9021    0.8358   -4.8155 C.3       1 <0>         0.0401
     16 O3          5.1515    1.4485   -5.1434 O.3       1 <0>        -0.3471
     17 C10         5.9687    1.7540   -4.0108 C.3       1 <0>         0.0131
     18 H2          6.1562    0.8439   -3.4410 H         1 <0>         0.0557
     19 C11         5.2403    2.7777   -3.1251 C.3       1 <0>         0.1017
     20 C12         7.2787    2.3349   -4.4772 C.2       1 <0>         0.5080
     21 O4          7.4585    2.5594   -5.6620 O.co2     1 <0>        -0.6700
     22 O5          8.1587    2.5802   -3.6698 O.co2     1 <0>        -0.6862
     23 H3         -0.2760    2.4107    1.1928 H         1 <0>         0.0813
     24 H4         -0.5502    2.3206   -0.5642 H         1 <0>         0.0683
     25 H5          1.5980    3.4600   -0.0306 H         1 <0>         0.0720
     26 H6          2.1502    1.9989    0.8225 H         1 <0>         0.0793
     27 H7          2.1778   -0.1745   -2.2144 H         1 <0>         0.1005
     28 H8          2.6400   -0.1116   -0.4940 H         1 <0>         0.0765
     29 H9          0.5261    0.0951    1.2285 H         1 <0>         0.0743
     30 H10        -1.0664    0.1426    0.4291 H         1 <0>         0.0783
     31 H11        -1.8590   -0.8000   -0.6023 H         1 <0>         0.3952
     32 H12        -1.8899   -1.9784   -1.7995 H         1 <0>         0.4137
     33 H13         2.1800    1.3002   -3.5980 H         1 <0>         0.0881
     34 H14         2.7780    2.6643   -4.5773 H         1 <0>         0.0766
     35 H15         4.0822   -0.0776   -4.2486 H         1 <0>         0.0480
     36 H16         3.3626    0.5962   -5.7317 H         1 <0>         0.0998
     37 H17         5.1631    3.7308   -3.6483 H         1 <0>         0.0727
     38 H18         5.7881    2.9136   -2.1926 H         1 <0>         0.1039
@<TRIPOS>BOND
     1    1    7 1
     2    1    2 1
     3    1   23 1
     4    1   24 1
     5    2    3 1
     6    2   25 1
     7    2   26 1
     8    3    4 1
     9    3    5 1
    10    3   11 1
    11    5    6 1
    12    5   27 1
    13    5   28 1
    14    6    7 1
    15    6    8 am
    16    7   29 1
    17    7   30 1
    18    8    9 2
    19    8   10 am
    20   10   31 1
    21   10   32 1
    22   11   12 2
    23   11   13 am
    24   13   19 1
    25   13   14 1
    26   14   15 1
    27   14   33 1
    28   14   34 1
    29   15   16 1
    30   15   35 1
    31   15   36 1
    32   16   17 1
    33   17   18 1
    34   17   19 1
    35   17   20 1
    36   19   37 1
    37   19   38 1
    38   20   21 2
    39   20   22 1
@<TRIPOS>MOLECULE
ZINC49040396
   28    28     0     0     0
SMALL
USER_CHARGES

@<TRIPOS>ATOM
      1 C1         -0.0187    1.5258    0.0104 C.3       1 <0>        -0.1756
      2 C2          0.0021   -0.0041    0.0020 C.3       1 <0>         0.1317
      3 H1         -1.0205   -0.3814    0.0098 H         1 <0>         0.1180
      4 C3          0.7309   -0.5033    1.2229 C.2       1 <0>         0.5030
      5 O1          1.7251   -1.1863    1.0985 O.2       1 <0>        -0.4762
      6 N1          0.2778   -0.1906    2.4531 N.am      1 <0>        -0.6143
      7 C4          0.9465   -0.6486    3.5732 C.2       1 <0>         0.3534
      8 N2          2.0450   -1.3962    3.5560 N.2       1 <0>        -0.4797
      9 C5          2.4140   -1.6507    4.8424 C.2       1 <0>         0.0342
     10 C6          1.4813   -1.0179    5.6579 C.2       1 <0>         0.0388
     11 N3          0.5913   -0.4031    4.8299 N.2       1 <0>        -0.5254
     12 C7          1.4634   -1.0099    7.0898 C.1       1 <0>         0.3257
     13 N4          1.4492   -1.0036    8.2257 N.1       1 <0>        -0.4700
     14 C8          3.5426   -2.4204    5.2718 C.1       1 <0>         0.3261
     15 N5          4.4379   -3.0311    5.6124 N.1       1 <0>        -0.4695
     16 N6          0.6878   -0.4765   -1.2033 N.pl3     1 <0>        -1.0984
     17 S1         -0.1875   -0.8749   -2.5515 S.o2      1 <0>         2.6171
     18 O2          0.7807   -1.3060   -3.4980 O.2       1 <0>        -0.9567
     19 O3         -1.1896   -1.7666   -2.0828 O.2       1 <0>        -0.9553
     20 C9         -0.9418    0.6829   -3.0947 C.3       1 <0>        -0.6774
     21 H2          1.0039    1.9031    0.0027 H         1 <0>         0.0749
     22 H3         -0.5459    1.8868   -0.8726 H         1 <0>         0.0685
     23 H4         -0.5289    1.8773    0.9072 H         1 <0>         0.0806
     24 H5         -0.5174    0.3558    2.5526 H         1 <0>         0.4103
     25 H6          1.6545   -0.5560   -1.2117 H         1 <0>         0.4280
     26 H7         -0.1585    1.4061   -3.3216 H         1 <0>         0.1303
     27 H8         -1.5412    0.5044   -3.9873 H         1 <0>         0.1284
     28 H9         -1.5788    1.0741   -2.3014 H         1 <0>         0.1296
@<TRIPOS>BOND
     1    1    2 1
     2    1   21 1
     3    1   22 1
     4    1   23 1
     5    2    3 1
     6    2    4 1
     7    2   16 1
     8    4    5 2
     9    4    6 am
    10    6    7 1
    11    6   24 1
    12    7   11 2
    13    7    8 1
    14    8    9 1
    15    9   10 2
    16    9   14 1
    17   10   11 1
    18   10   12 1
    19   12   13 3
    20   14   15 3
    21   16   17 1
    22   16   25 1
    23   17   18 2
    24   17   19 2
    25   17   20 1
    26   20   26 1
    27   20   27 1
    28   20   28 1
@<TRIPOS>MOLECULE
ZINC02094958
   33    33     0     0     0
SMALL
USER_CHARGES

@<TRIPOS>ATOM
      1 C1         -0.0173    1.4248    0.0099 C.3       1 <0>         0.0381
      2 O1          0.0021   -0.0041    0.0020 O.3       1 <0>        -0.3698
      3 C2          0.6181   -0.6108    1.0287 C.2       1 <0>         0.4429
      4 O2          1.1242    0.0494    1.9050 O.2       1 <0>        -0.4388
      5 C3          0.6786   -2.1154    1.0883 C.3       1 <0>        -0.0811
      6 C4          1.4302   -2.5460    2.3496 C.3       1 <0>         0.1861
      7 C5          1.6533   -4.0421    2.3387 C.2       1 <0>        -0.3756
      8 C6          3.0040   -4.2135    2.3554 C.2       1 <0>         0.2723
      9 C7          3.6504   -2.8859    2.3764 C.2       1 <0>         0.3997
     10 O3          4.9882   -2.6844    2.3968 O.3       1 <0>        -0.6998
     11 N1          2.7668   -1.9416    2.3733 N.2       1 <0>        -0.5669
     12 N2          3.6586   -5.4240    2.3534 N.pl3     1 <0>        -0.8036
     13 C8          0.6639   -5.0533    2.3166 C.2       1 <0>         0.5564
     14 O4          0.9917   -6.2250    2.3101 O.2       1 <0>        -0.5673
     15 O5         -0.6433   -4.7182    2.3028 O.3       1 <0>        -0.3391
     16 C9         -1.5877   -5.7904    2.2808 C.3       1 <0>         0.0414
     17 C10         0.6559   -2.1434    3.5782 C.2       1 <0>         0.4835
     18 O6         -0.0793   -2.9372    4.1160 O.2       1 <0>        -0.5129
     19 O7          0.7829   -0.9029    4.0749 O.3       1 <0>        -0.3057
     20 C11         0.0194   -0.5899    5.2416 C.3       1 <0>         0.0300
     21 H1          1.0053    1.8021    0.0021 H         1 <0>         0.0576
     22 H2         -0.5445    1.7859   -0.8732 H         1 <0>         0.0909
     23 H3         -0.5275    1.7763    0.9067 H         1 <0>         0.0536
     24 H4         -0.3336   -2.5190    1.1129 H         1 <0>         0.1038
     25 H5          1.1992   -2.4933    0.2084 H         1 <0>         0.1096
     26 H6          3.1505   -6.2501    2.3392 H         1 <0>         0.4075
     27 H7          4.6282   -5.4511    2.3662 H         1 <0>         0.4084
     28 H8         -2.5990   -5.3838    2.2715 H         1 <0>         0.0899
     29 H9         -1.4308   -6.3945    1.3872 H         1 <0>         0.0499
     30 H10        -1.4538   -6.4109    3.1669 H         1 <0>         0.0508
     31 H11        -1.0419   -0.7112    5.0245 H         1 <0>         0.0479
     32 H12         0.3034   -1.2606    6.0525 H         1 <0>         0.0491
     33 H13         0.2142    0.4409    5.5375 H         1 <0>         0.0915
@<TRIPOS>BOND
     1    1    2 1
     2    1   21 1
     3    1   22 1
     4    1   23 1
     5    2    3 1
     6    3    4 2
     7    3    5 1
     8    5    6 1
     9    5   24 1
    10    5   25 1
    11    6   11 1
    12    6    7 1
    13    6   17 1
    14    7    8 2
    15    7   13 1
    16    8    9 1
    17    8   12 1
    18    9   10 1
    19    9   11 2
    20   12   26 1
    21   12   27 1
    22   13   14 2
    23   13   15 1
    24   15   16 1
    25   16   28 1
    26   16   29 1
    27   16   30 1
    28   17   18 2
    29   17   19 1
    30   19   20 1
    31   20   31 1
    32   20   32 1
    33   20   33 1
@<TRIPOS>MOLECULE
ZINC62842382
   37    38     0     0     0
SMALL
USER_CHARGES

@<TRIPOS>ATOM
      1 C1         -0.0187    1.5258    0.0104 C.3       1 <0>        -0.1159
      2 C2          0.0021   -0.0041    0.0020 C.3       1 <0>        -0.1317
      3 C3         -1.4338   -0.5335    0.0112 C.3       1 <0>        -0.1060
      4 C4         -2.1590   -0.0098    1.2548 C.3       1 <0>         0.1117
      5 N1         -1.3759   -0.3688    2.4451 N.am      1 <0>        -0.5954
      6 C5          0.0418    0.0132    2.4996 C.3       1 <0>         0.1011
      7 C6          0.7423   -0.5108    1.2420 C.3       1 <0>        -0.1075
      8 C7         -1.9473   -1.0353    3.4677 C.2       1 <0>         0.5148
      9 O1         -3.1186   -1.3446    3.4108 O.2       1 <0>        -0.5396
     10 C8         -1.1307   -1.3963    4.6817 C.3       1 <0>        -0.1178
     11 C9         -1.9986   -2.1315    5.6703 C.2       1 <0>         0.2272
     12 C10        -2.0148   -3.4815    5.6861 C.2       1 <0>        -0.2826
     13 C11        -2.8378   -4.1496    6.6245 C.2       1 <0>         0.5550
     14 O2         -2.8688   -5.3666    6.6581 O.2       1 <0>        -0.5154
     15 N2         -3.5867   -3.4260    7.4810 N.am      1 <0>        -0.6588
     16 H1         -4.1529   -3.8765    8.1271 H         1 <0>         0.4305
     17 C12        -3.5514   -2.0810    7.4435 C.2       1 <0>         0.7053
     18 O3         -4.2322   -1.4416    8.2220 O.2       1 <0>        -0.5448
     19 N3         -2.7696   -1.4341    6.5600 N.am      1 <0>        -0.6276
     20 H2         -2.7550   -0.4643    6.5514 H         1 <0>         0.4344
     21 C13         0.7081   -0.4898   -1.2376 C.2       1 <0>         0.5015
     22 O4          1.1533    0.3132   -2.0398 O.co2     1 <0>        -0.6949
     23 O5          0.8341   -1.6858   -1.4383 O.co2     1 <0>        -0.6965
     24 H3          1.0039    1.9031    0.0027 H         1 <0>         0.0510
     25 H4         -0.5459    1.8868   -0.8726 H         1 <0>         0.0510
     26 H5         -0.5289    1.8773    0.9072 H         1 <0>         0.0336
     27 H6         -1.9534   -0.1915   -0.8839 H         1 <0>         0.0680
     28 H7         -1.4196   -1.6232    0.0302 H         1 <0>         0.0691
     29 H8         -2.2538    1.0743    1.1931 H         1 <0>         0.0696
     30 H9         -3.1486   -0.4623    1.3184 H         1 <0>         0.0874
     31 H10         0.1264    1.0992    2.5394 H         1 <0>         0.0751
     32 H11         0.5043   -0.4241    3.3844 H         1 <0>         0.0787
     33 H12         0.7360   -1.6007    1.2494 H         1 <0>         0.0708
     34 H13         1.7716   -0.1526    1.2229 H         1 <0>         0.0697
     35 H14        -0.2989   -2.0345    4.3835 H         1 <0>         0.1366
     36 H15        -0.7442   -0.4875    5.1430 H         1 <0>         0.1200
     37 H16        -1.4082   -4.0442    4.9920 H         1 <0>         0.1726
@<TRIPOS>BOND
     1    1    2 1
     2    1   24 1
     3    1   25 1
     4    1   26 1
     5    2    7 1
     6    2    3 1
     7    2   21 1
     8    3    4 1
     9    3   27 1
    10    3   28 1
    11    4    5 1
    12    4   29 1
    13    4   30 1
    14    5    6 1
    15    5    8 am
    16    6    7 1
    17    6   31 1
    18    6   32 1
    19    7   33 1
    20    7   34 1
    21    8    9 2
    22    8   10 1
    23   10   11 1
    24   10   35 1
    25   10   36 1
    26   11   19 1
    27   11   12 2
    28   12   13 1
    29   12   37 1
    30   13   14 2
    31   13   15 am
    32   15   16 1
    33   15   17 am
    34   17   18 2
    35   17   19 am
    36   19   20 1
    37   21   22 2
    38   21   23 1
@<TRIPOS>MOLECULE
ZINC20614779
   42    44     0     0     0
SMALL
USER_CHARGES
5-[4-(2-fluorobenzoyl)piperazine-1-carbonyl]-1-methyl-pyrazole-4-carboxylic acid
@<TRIPOS>ATOM
      1 C1          1.0827    4.4695    4.7360 C.3       1 <0>         0.1009
      2 N1         -0.0694    3.5659    4.7849 N.pl3     1 <0>        -0.3635
      3 C2         -0.3043    2.5282    3.9405 C.2       1 <0>         0.0527
      4 C3         -1.5055    1.9429    4.3389 C.2       1 <0>        -0.2060
      5 C4         -1.9687    2.6633    5.4536 C.2       1 <0>         0.0840
      6 N2         -1.1181    3.6225    5.7097 N.2       1 <0>        -0.2996
      7 C5         -2.1657    0.7819    3.7098 C.2       1 <0>         0.5186
      8 O1         -1.6581    0.2428    2.7468 O.co2     1 <0>        -0.6279
      9 O2         -3.3310    0.3204    4.2037 O.co2     1 <0>        -0.7536
     10 C6          0.5464    2.1049    2.8125 C.2       1 <0>         0.6191
     11 O3          1.3856    1.2403    2.9750 O.2       1 <0>        -0.5166
     12 N3          0.3935    2.6765    1.6015 N.am      1 <0>        -0.6018
     13 C7          1.1547    2.1890    0.4428 C.3       1 <0>         0.1028
     14 C8          0.1714    1.8285   -0.6777 C.3       1 <0>         0.0560
     15 N4         -0.7603    2.9498   -0.8636 N.am      1 <0>        -0.5963
     16 C9         -1.5247    3.4349    0.2941 C.3       1 <0>         0.0962
     17 C10        -0.5414    3.7954    1.4145 C.3       1 <0>         0.1000
     18 C11        -0.9106    3.5233   -2.0739 C.2       1 <0>         0.5596
     19 O4         -1.6996    4.4366   -2.2201 O.2       1 <0>        -0.5277
     20 C12        -0.1169    3.0421   -3.2228 C.ar      1 <0>        -0.1649
     21 C13         0.2320    1.6932   -3.3190 C.ar      1 <0>        -0.0757
     22 C14         0.9680    1.2495   -4.3968 C.ar      1 <0>        -0.1361
     23 C15         1.3722    2.1387   -5.3782 C.ar      1 <0>        -0.0683
     24 C16         1.0368    3.4765   -5.2891 C.ar      1 <0>        -0.1633
     25 C17         0.2938    3.9358   -4.2166 C.ar      1 <0>         0.1533
     26 F1         -0.0336    5.2436   -4.1294 F         1 <0>        -0.1207
     27 H1          1.7401    4.1807    3.9026 H         1 <0>         0.0824
     28 H2          1.6400    4.4046    5.6821 H         1 <0>         0.0816
     29 H3          0.7330    5.5017    4.5865 H         1 <0>         0.0817
     30 H4         -2.8764    2.4614    6.0028 H         1 <0>         0.1941
     31 H5          1.8412    2.9761    0.0976 H         1 <0>         0.0710
     32 H6          1.7330    1.2991    0.7320 H         1 <0>         0.1094
     33 H7          0.7277    1.6458   -1.6089 H         1 <0>         0.1212
     34 H8         -0.3853    0.9216   -0.3993 H         1 <0>         0.0948
     35 H9         -2.1042    4.3239    0.0044 H         1 <0>         0.1066
     36 H10        -2.2103    2.6462    0.6374 H         1 <0>         0.0906
     37 H11        -1.0913    3.9740    2.3503 H         1 <0>         0.0965
     38 H12         0.0203    4.7007    1.1408 H         1 <0>         0.0736
     39 H13        -0.0778    0.9983   -2.5525 H         1 <0>         0.1579
     40 H14         1.2342    0.2056   -4.4737 H         1 <0>         0.1388
     41 H15         1.9528    1.7851   -6.2174 H         1 <0>         0.1375
     42 H16         1.3557    4.1645   -6.0580 H         1 <0>         0.1414
@<TRIPOS>BOND
     1    1    2 1
     2    1   27 1
     3    1   28 1
     4    1   29 1
     5    2    6 1
     6    2    3 1
     7    3    4 2
     8    3   10 1
     9    4    5 1
    10    4    7 1
    11    5    6 2
    12    5   30 1
    13    7    8 2
    14    7    9 1
    15   10   11 2
    16   10   12 am
    17   12   17 1
    18   12   13 1
    19   13   14 1
    20   13   31 1
    21   13   32 1
    22   14   15 1
    23   14   33 1
    24   14   34 1
    25   15   16 1
    26   15   18 am
    27   16   17 1
    28   16   35 1
    29   16   36 1
    30   17   37 1
    31   17   38 1
    32   18   19 2
    33   18   20 1
    34   20   25 ar
    35   20   21 ar
    36   21   22 ar
    37   21   39 1
    38   22   23 ar
    39   22   40 1
    40   23   24 ar
    41   23   41 1
    42   24   25 ar
    43   24   42 1
    44   25   26 1
@<TRIPOS>MOLECULE
ZINC40531567
   40    41     0     0     0
SMALL
USER_CHARGES

@<TRIPOS>ATOM
      1 C1         -0.8272   -1.8817    3.9519 C.3       1 <0>        -0.1417
      2 C2         -1.4500   -1.5129    2.6040 C.3       1 <0>         0.0760
      3 H1         -2.5358   -1.5765    2.6750 H         1 <0>         0.0643
      4 C3         -0.9498   -2.4820    1.5266 C.3       1 <0>         0.0334
      5 N1         -1.4103   -1.9967    0.2160 N.am      1 <0>        -0.6333
      6 C4         -1.1567   -0.5887   -0.1284 C.3       1 <0>         0.0981
      7 C5         -1.6468    0.2881    1.0296 C.3       1 <0>         0.0497
      8 O1         -1.0718   -0.1800    2.2518 O.3       1 <0>        -0.3842
      9 C6         -2.0452   -2.8177   -0.6439 C.2       1 <0>         0.7231
     10 O2         -2.7190   -2.3530   -1.5430 O.2       1 <0>        -0.6017
     11 N2         -1.9333   -4.1538   -0.5071 N.am      1 <0>        -0.5822
     12 C7         -1.1335   -4.7139    0.5851 C.3       1 <0>        -0.0165
     13 C8         -2.0358   -5.0640    1.7402 C.2       1 <0>         0.4732
     14 O3         -3.2358   -4.8642    1.6586 O.co2     1 <0>        -0.6584
     15 O4         -1.5659   -5.5470    2.7563 O.co2     1 <0>        -0.6778
     16 C9         -2.6114   -5.0462   -1.4505 C.3       1 <0>         0.1645
     17 H2         -3.1420   -4.4510   -2.1937 H         1 <0>         0.1159
     18 C10        -1.5697   -5.9315   -2.1546 C.3       1 <0>        -0.1417
     19 C11        -2.3253   -7.0667   -2.9028 C.3       1 <0>        -0.5766
     20 S1         -3.6148   -7.4913   -1.6571 S.o2      1 <0>         2.3517
     21 O5         -4.8657   -7.6324   -2.3164 O.2       1 <0>        -0.9515
     22 O6         -3.1345   -8.5465   -0.8356 O.2       1 <0>        -0.9387
     23 C12        -3.6229   -5.9318   -0.6838 C.3       1 <0>        -0.5833
     24 H3         -1.1819   -1.1912    4.7171 H         1 <0>         0.0618
     25 H4         -1.1146   -2.8987    4.2189 H         1 <0>         0.0853
     26 H5          0.2585   -1.8179    3.8801 H         1 <0>         0.0609
     27 H6          0.1395   -2.5182    1.5426 H         1 <0>         0.0690
     28 H7         -1.3535   -3.4773    1.7121 H         1 <0>         0.1569
     29 H8         -0.0882   -0.4343   -0.2790 H         1 <0>         0.0673
     30 H9         -1.6974   -0.3303   -1.0389 H         1 <0>         0.0978
     31 H10        -1.3447    1.3211    0.8573 H         1 <0>         0.1009
     32 H11        -2.7335    0.2317    1.0943 H         1 <0>         0.0542
     33 H12        -0.6226   -5.6120    0.2379 H         1 <0>         0.0764
     34 H13        -0.3965   -3.9792    0.9095 H         1 <0>         0.1140
     35 H14        -1.0015   -5.3349   -2.8682 H         1 <0>         0.0988
     36 H15        -0.8942   -6.3633   -1.4161 H         1 <0>         0.0912
     37 H16        -2.7743   -6.6997   -3.8256 H         1 <0>         0.1364
     38 H17        -1.6696   -7.9156   -3.0963 H         1 <0>         0.1370
     39 H18        -3.2840   -6.1110    0.3366 H         1 <0>         0.1888
     40 H19        -4.6145   -5.4791   -0.6889 H         1 <0>         0.1411
@<TRIPOS>BOND
     1    1    2 1
     2    1   24 1
     3    1   25 1
     4    1   26 1
     5    2    3 1
     6    2    8 1
     7    2    4 1
     8    4    5 1
     9    4   27 1
    10    4   28 1
    11    5    6 1
    12    5    9 am
    13    6    7 1
    14    6   29 1
    15    6   30 1
    16    7    8 1
    17    7   31 1
    18    7   32 1
    19    9   10 2
    20    9   11 am
    21   11   12 1
    22   11   16 1
    23   12   13 1
    24   12   33 1
    25   12   34 1
    26   13   14 2
    27   13   15 1
    28   16   17 1
    29   16   23 1
    30   16   18 1
    31   18   19 1
    32   18   35 1
    33   18   36 1
    34   19   20 1
    35   19   37 1
    36   19   38 1
    37   20   21 2
    38   20   22 2
    39   20   23 1
    40   23   39 1
    41   23   40 1
@<TRIPOS>MOLECULE
ZINC48518440
   36    37     0     0     0
SMALL
USER_CHARGES

@<TRIPOS>ATOM
      1 C1         -0.0184    1.5028    0.0103 C.3       1 <0>        -0.1025
      2 C2          0.0021   -0.0041    0.0020 C.2       1 <0>         0.1637
      3 C3          0.0080   -0.8179   -1.1355 C.2       1 <0>        -0.7755
      4 C4          0.0279   -2.1072   -0.7249 C.2       1 <0>         0.2007
      5 N1          0.0343   -2.1090    0.6245 N.pl3     1 <0>        -0.3760
      6 N2          0.0231   -0.7768    1.0576 N.2       1 <0>        -0.3116
      7 C5          0.0548   -3.2948    1.4847 C.3       1 <0>         0.0981
      8 C6          0.0401   -3.3230   -1.6152 C.3       1 <0>        -0.1301
      9 S1         -0.0085   -0.2626   -2.8076 S.o2      1 <0>         2.6888
     10 O1         -0.5486   -1.3241   -3.5827 O.2       1 <0>        -1.0079
     11 O2         -0.5776    1.0394   -2.7975 O.2       1 <0>        -1.0051
     12 N3          1.5687   -0.0862   -3.2805 N.2       1 <0>        -1.0572
     13 C7          1.8428    0.3144   -4.4761 C.2       1 <0>         0.4986
     14 O3          0.8444    0.5895   -5.3410 O.3       1 <0>        -0.7077
     15 C8          3.2781    0.4750   -4.9065 C.3       1 <0>         0.0937
     16 H1          3.9357    0.2949   -4.0561 H         1 <0>         0.0819
     17 C9          3.4989    1.8963   -5.4322 C.3       1 <0>         0.0383
     18 O4          4.8314    2.0068   -5.9414 O.3       1 <0>        -0.3839
     19 C10         5.1261    1.0703   -6.9822 C.3       1 <0>         0.0231
     20 C11         4.9054   -0.3510   -6.4565 C.3       1 <0>         0.0232
     21 O5          3.5733   -0.4625   -5.9462 O.3       1 <0>        -0.3606
     22 H2          1.0042    1.8801    0.0026 H         1 <0>         0.0833
     23 H3         -0.5455    1.8639   -0.8728 H         1 <0>         0.1137
     24 H4         -0.5286    1.8543    0.9071 H         1 <0>         0.0722
     25 H5          1.0875   -3.5746    1.6932 H         1 <0>         0.0753
     26 H6         -0.4577   -3.0734    2.4209 H         1 <0>         0.0883
     27 H7         -0.4500   -4.1185    0.9800 H         1 <0>         0.0871
     28 H8          1.0706   -3.6020   -1.8350 H         1 <0>         0.0922
     29 H9         -0.4598   -4.1489   -1.1091 H         1 <0>         0.0729
     30 H10        -0.4816   -3.0976   -2.5453 H         1 <0>         0.1273
     31 H11         2.7857    2.1046   -6.2298 H         1 <0>         0.0745
     32 H12         3.3585    2.6107   -4.6210 H         1 <0>         0.1063
     33 H13         4.4677    1.2508   -7.8318 H         1 <0>         0.0599
     34 H14         6.1643    1.1865   -7.2934 H         1 <0>         0.0983
     35 H15         5.0457   -1.0654   -7.2677 H         1 <0>         0.1000
     36 H16         5.6186   -0.5593   -5.6589 H         1 <0>         0.0569
@<TRIPOS>BOND
     1    1    2 1
     2    1   22 1
     3    1   23 1
     4    1   24 1
     5    2    6 2
     6    2    3 1
     7    3    4 2
     8    3    9 1
     9    4    5 1
    10    4    8 1
    11    5    6 1
    12    5    7 1
    13    7   25 1
    14    7   26 1
    15    7   27 1
    16    8   28 1
    17    8   29 1
    18    8   30 1
    19    9   10 2
    20    9   11 2
    21    9   12 1
    22   12   13 2
    23   13   14 1
    24   13   15 1
    25   15   16 1
    26   15   21 1
    27   15   17 1
    28   17   18 1
    29   17   31 1
    30   17   32 1
    31   18   19 1
    32   19   20 1
    33   19   33 1
    34   19   34 1
    35   20   21 1
    36   20   35 1
    37   20   36 1
@<TRIPOS>MOLECULE
ZINC54415488
   31    32     0     0     0
SMALL
USER_CHARGES

@<TRIPOS>ATOM
      1 C1          0.1671    1.1109    0.8082 C.ar      1 <0>        -0.0775
      2 C2          1.3521    1.8175    0.7795 C.ar      1 <0>        -0.0296
      3 C3          2.3750    1.4253   -0.0646 C.ar      1 <0>        -0.0779
      4 C4          2.2175    0.3209   -0.8869 C.ar      1 <0>         0.1692
      5 C5          1.0358   -0.3949   -0.8668 C.ar      1 <0>        -0.1329
      6 C6          0.0009   -0.0026   -0.0165 C.ar      1 <0>        -0.0380
      7 C7         -1.2664   -0.7636    0.0105 C.2       1 <0>         0.5502
      8 O1         -2.3246   -0.1778    0.1312 O.2       1 <0>        -0.5140
      9 N1         -1.2483   -2.1068   -0.0986 N.am      1 <0>        -0.5986
     10 C8          0.0224   -2.8487   -0.1114 C.3       1 <0>         0.0575
     11 C9         -0.0669   -3.9785    0.9208 C.3       1 <0>         0.0392
     12 O2         -1.2508   -4.7430    0.6807 O.3       1 <0>        -0.3438
     13 C10        -2.4652   -4.0034    0.8290 C.3       1 <0>         0.0114
     14 H1         -2.5124   -3.5781    1.8316 H         1 <0>         0.0571
     15 C11        -2.4989   -2.8753   -0.2022 C.3       1 <0>         0.1014
     16 C12        -3.6422   -4.9200    0.6152 C.2       1 <0>         0.5083
     17 O3         -3.4589   -6.0979    0.3594 O.co2     1 <0>        -0.6668
     18 O4         -4.7776   -4.4836    0.6980 O.co2     1 <0>        -0.6833
     19 F1          3.2206   -0.0561   -1.7096 F         1 <0>        -0.0975
     20 N2          3.6430    2.1884   -0.0902 N.pl3     1 <0>         0.0345
     21 O5          3.7828    3.1525    0.6259 O.2       1 <0>        -0.1502
     22 O6          4.5388    1.8477   -0.8271 O.3       1 <0>        -0.1429
     23 H2         -0.6288    1.4165    1.4711 H         1 <0>         0.1659
     24 H3          1.4808    2.6792    1.4176 H         1 <0>         0.1712
     25 H4          0.9130   -1.2553   -1.5079 H         1 <0>         0.1705
     26 H5          0.1918   -3.2695   -1.1025 H         1 <0>         0.0860
     27 H6          0.8416   -2.1782    0.1482 H         1 <0>         0.0898
     28 H7          0.8073   -4.6234    0.8313 H         1 <0>         0.1031
     29 H8         -0.1053   -3.5532    1.9237 H         1 <0>         0.0484
     30 H9         -3.3486   -2.2224   -0.0028 H         1 <0>         0.1095
     31 H10        -2.5877   -3.2989   -1.2026 H         1 <0>         0.0800
@<TRIPOS>BOND
     1    1    6 ar
     2    1    2 ar
     3    1   23 1
     4    2    3 ar
     5    2   24 1
     6    3    4 ar
     7    3   20 1
     8    4    5 ar
     9    4   19 1
    10    5    6 ar
    11    5   25 1
    12    6    7 1
    13    7    8 2
    14    7    9 am
    15    9   15 1
    16    9   10 1
    17   10   11 1
    18   10   26 1
    19   10   27 1
    20   11   12 1
    21   11   28 1
    22   11   29 1
    23   12   13 1
    24   13   14 1
    25   13   15 1
    26   13   16 1
    27   15   30 1
    28   15   31 1
    29   16   17 2
    30   16   18 1
    31   20   21 2
    32   20   22 1
@<TRIPOS>MOLECULE
ZINC39884158
   45    49     0     0     0
SMALL
USER_CHARGES

@<TRIPOS>ATOM
      1 C1          0.0144    1.2735    0.3624 C.2       1 <0>        -0.1575
      2 C2          1.2232    1.9369    0.4590 C.2       1 <0>        -0.1634
      3 C3          2.3426    1.3358   -0.0131 C.2       1 <0>        -0.1234
      4 S1          1.7008   -0.2162   -0.6188 S.3       1 <0>         0.1470
      5 C4         -0.0159    0.0413   -0.2017 C.2       1 <0>        -0.2086
      6 C5          3.7608    1.8454   -0.0244 C.3       1 <0>         0.1179
      7 H1          3.7302    2.9317   -0.1089 H         1 <0>         0.1034
      8 C6          4.4399    1.3041   -1.2300 C.2       1 <0>        -0.1997
      9 C7          5.6478    0.7189   -1.3244 C.2       1 <0>         0.1069
     10 N1          6.0145    0.3498   -2.5991 N.am      1 <0>        -0.5129
     11 C8          5.1744    0.5580   -3.6292 C.2       1 <0>         0.4765
     12 O1          5.3393    0.2878   -4.8059 O.2       1 <0>        -0.4733
     13 S2          3.8420    1.2812   -2.9013 S.3       1 <0>         0.0758
     14 C9          7.3210   -0.2698   -2.8341 C.3       1 <0>         0.0733
     15 C10         7.1974   -1.7664   -2.7074 C.2       1 <0>         0.5044
     16 O2          6.1236   -2.2662   -2.4464 O.2       1 <0>        -0.5054
     17 N2          8.2800   -2.5494   -2.8840 N.am      1 <0>        -0.6162
     18 C11         9.5944   -1.9656   -3.1952 C.3       1 <0>         0.0702
     19 C12        10.6257   -2.5510   -2.2238 C.3       1 <0>         0.0457
     20 O3         10.5420   -3.9779   -2.2520 O.3       1 <0>        -0.3788
     21 C13         9.2827   -4.4990   -1.8201 C.3       1 <0>         0.0469
     22 C14         8.1838   -4.0130   -2.7653 C.3       1 <0>         0.0788
     23 S3          6.6505    0.4376    0.1114 S.3       1 <0>        -0.0212
     24 C15         5.9163    1.5238    1.3753 C.3       1 <0>        -0.1538
     25 H2          6.3546    2.5216    1.3961 H         1 <0>         0.1283
     26 C16         4.3878    1.4990    1.2708 C.3       1 <0>        -0.1394
     27 H3          4.0638    2.2782    1.9607 H         1 <0>         0.0990
     28 C17         4.0050    0.2294    1.9616 C.2       1 <0>         0.4861
     29 O4          2.8740   -0.4699    1.7833 O.3       1 <0>        -0.5914
     30 N3          4.9921   -0.0690    2.7774 N.2       1 <0>        -0.6811
     31 C18         6.0516    0.7523    2.7020 C.2       1 <0>         0.5316
     32 O5          6.9469    0.8597    3.5150 O.2       1 <0>        -0.5222
     33 H4         -0.8916    1.7282    0.7348 H         1 <0>         0.1193
     34 H5          1.2750    2.9197    0.9038 H         1 <0>         0.1194
     35 H6         -0.8595   -0.6146   -0.3580 H         1 <0>         0.1734
     36 H7          7.6678   -0.0175   -3.8362 H         1 <0>         0.1258
     37 H8          8.0358    0.0993   -2.0986 H         1 <0>         0.1233
     38 H9          9.8729   -2.2134   -4.2195 H         1 <0>         0.0826
     39 H10         9.5524   -0.8828   -3.0774 H         1 <0>         0.0924
     40 H11        11.6262   -2.2390   -2.5234 H         1 <0>         0.1088
     41 H12        10.4191   -2.1941   -1.2148 H         1 <0>         0.0615
     42 H13         9.3171   -5.5884   -1.8292 H         1 <0>         0.1088
     43 H14         9.0712   -4.1491   -0.8096 H         1 <0>         0.0609
     44 H15         7.2081   -4.2853   -2.3629 H         1 <0>         0.1039
     45 H16         8.3179   -4.4704   -3.7455 H         1 <0>         0.0762
@<TRIPOS>BOND
     1    1    5 2
     2    1    2 1
     3    1   33 1
     4    2    3 2
     5    2   34 1
     6    3    4 1
     7    3    6 1
     8    4    5 1
     9    5   35 1
    10    6    7 1
    11    6   26 1
    12    6    8 1
    13    8   13 1
    14    8    9 2
    15    9   10 1
    16    9   23 1
    17   10   11 am
    18   10   14 1
    19   11   12 2
    20   11   13 1
    21   14   15 1
    22   14   36 1
    23   14   37 1
    24   15   16 2
    25   15   17 am
    26   17   22 1
    27   17   18 1
    28   18   19 1
    29   18   38 1
    30   18   39 1
    31   19   20 1
    32   19   40 1
    33   19   41 1
    34   20   21 1
    35   21   22 1
    36   21   42 1
    37   21   43 1
    38   22   44 1
    39   22   45 1
    40   23   24 1
    41   24   25 1
    42   24   31 1
    43   24   26 1
    44   26   27 1
    45   26   28 1
    46   28   29 1
    47   28   30 2
    48   30   31 1
    49   31   32 2
@<TRIPOS>MOLECULE
ZINC09016737
   61    65     0     0     0
SMALL
USER_CHARGES
N-[2-[4-[(3-fluorophenyl)methyl]-5-oxo-2,4,8,9-tetrazabicyclo[4.3.0]nona-2,7,10-trien-9-yl]ethyl]-5-oxo-1-(p-tolyl)pyrrolidine-3-carboxamide
@<TRIPOS>ATOM
      1 C1         -0.0184    1.5028    0.0103 C.3       1 <0>        -0.1127
      2 C2          0.0021   -0.0041    0.0020 C.ar      1 <0>        -0.1097
      3 C3          0.0096   -0.6874   -1.2002 C.ar      1 <0>        -0.0936
      4 C4          0.0332   -2.0682   -1.2112 C.ar      1 <0>        -0.1490
      5 C5          0.0387   -2.7707   -0.0132 C.ar      1 <0>         0.1585
      6 C6          0.0258   -2.0815    1.1924 C.ar      1 <0>        -0.1517
      7 C7          0.0075   -0.7006    1.1966 C.ar      1 <0>        -0.0928
      8 N1          0.0567   -4.1698   -0.0209 N.am      1 <0>        -0.5532
      9 C8         -0.0555   -4.9927   -1.2309 C.3       1 <0>         0.1080
     10 C9          0.4472   -6.3966   -0.8203 C.3       1 <0>        -0.1240
     11 H1         -0.1253   -7.1761   -1.3230 H         1 <0>         0.1370
     12 C10         0.1665   -6.3973    0.7003 C.3       1 <0>        -0.1448
     13 C11         0.1733   -4.9328    1.0796 C.2       1 <0>         0.5144
     14 O1          0.2703   -4.5089    2.2118 O.2       1 <0>        -0.5041
     15 C12         1.9206   -6.5501   -1.0968 C.2       1 <0>         0.5232
     16 O2          2.5221   -5.6749   -1.6826 O.2       1 <0>        -0.5197
     17 N2          2.5700   -7.6599   -0.6931 N.am      1 <0>        -0.7248
     18 C13         4.0024   -7.8092   -0.9619 C.3       1 <0>         0.1057
     19 C14         4.4892   -9.1479   -0.4038 C.3       1 <0>         0.1266
     20 N3          5.9216   -9.2972   -0.6726 N.pl3     1 <0>        -0.3513
     21 C15         6.4683   -9.8677   -1.7773 C.2       1 <0>         0.3375
     22 C16         7.8612   -9.7938   -1.6189 C.2       1 <0>        -0.3386
     23 C17         8.1086   -9.1702   -0.3818 C.2       1 <0>         0.1333
     24 N4          6.9616   -8.8813    0.1683 N.2       1 <0>        -0.2655
     25 C18         8.7057  -10.3396   -2.6814 C.2       1 <0>         0.5760
     26 O3          9.9210  -10.3101   -2.6008 O.2       1 <0>        -0.5093
     27 N5          8.0861  -10.8917   -3.7510 N.am      1 <0>        -0.5403
     28 C19         6.7312  -10.9164   -3.8192 C.2       1 <0>         0.4194
     29 N6          5.9649  -10.4321   -2.8863 N.2       1 <0>        -0.5328
     30 C20         8.8820  -11.4570   -4.8434 C.3       1 <0>         0.1375
     31 C21         9.1644  -10.3860   -5.8654 C.ar      1 <0>        -0.0953
     32 C22         8.2914  -10.1891   -6.9194 C.ar      1 <0>        -0.1143
     33 C23         8.5467   -9.2041   -7.8548 C.ar      1 <0>        -0.0913
     34 C24         9.6806   -8.4216   -7.7433 C.ar      1 <0>        -0.1426
     35 C25        10.5581   -8.6214   -6.6914 C.ar      1 <0>         0.0991
     36 C26        10.2986   -9.6051   -5.7519 C.ar      1 <0>        -0.1259
     37 F1         11.6670   -7.8575   -6.5817 F         1 <0>        -0.1354
     38 H2          1.0043    1.8800    0.0157 H         1 <0>         0.0692
     39 H3         -0.5341    1.8640   -0.8794 H         1 <0>         0.0655
     40 H4         -0.5400    1.8542    0.9005 H         1 <0>         0.0657
     41 H5          0.0012   -0.1406   -2.1315 H         1 <0>         0.1266
     42 H6          0.0432   -2.6013   -2.1504 H         1 <0>         0.1258
     43 H7          0.0296   -2.6250    2.1257 H         1 <0>         0.1537
     44 H8         -0.0029   -0.1641    2.1339 H         1 <0>         0.1264
     45 H9         -1.0939   -5.0419   -1.5587 H         1 <0>         0.0946
     46 H10         0.5722   -4.5856   -2.0235 H         1 <0>         0.1065
     47 H11         0.9522   -6.9330    1.2330 H         1 <0>         0.1112
     48 H12        -0.8066   -6.8413    0.9105 H         1 <0>         0.1259
     49 H13         2.0889   -8.3599   -0.2246 H         1 <0>         0.4048
     50 H14         4.1751   -7.7796   -2.0377 H         1 <0>         0.0783
     51 H15         4.5484   -6.9960   -0.4837 H         1 <0>         0.0796
     52 H16         4.3165   -9.1775    0.6721 H         1 <0>         0.1083
     53 H17         3.9432   -9.9611   -0.8819 H         1 <0>         0.1087
     54 H18         9.0816   -8.9655    0.0398 H         1 <0>         0.2007
     55 H19         6.2674  -11.3584   -4.6887 H         1 <0>         0.2127
     56 H20         9.8231  -11.8387   -4.4476 H         1 <0>         0.1152
     57 H21         8.3287  -12.2703   -5.3129 H         1 <0>         0.1139
     58 H22         7.4073  -10.8028   -7.0095 H         1 <0>         0.1332
     59 H23         7.8620   -9.0484   -8.6754 H         1 <0>         0.1377
     60 H24         9.8822   -7.6550   -8.4768 H         1 <0>         0.1384
     61 H25        10.9827   -9.7620   -4.9310 H         1 <0>         0.1439
@<TRIPOS>BOND
     1    1    2 1
     2    1   38 1
     3    1   39 1
     4    1   40 1
     5    2    7 ar
     6    2    3 ar
     7    3    4 ar
     8    3   41 1
     9    4    5 ar
    10    4   42 1
    11    5    6 ar
    12    5    8 1
    13    6    7 ar
    14    6   43 1
    15    7   44 1
    16    8   13 am
    17    8    9 1
    18    9   10 1
    19    9   45 1
    20    9   46 1
    21   10   11 1
    22   10   12 1
    23   10   15 1
    24   12   13 1
    25   12   47 1
    26   12   48 1
    27   13   14 2
    28   15   16 2
    29   15   17 am
    30   17   18 1
    31   17   49 1
    32   18   19 1
    33   18   50 1
    34   18   51 1
    35   19   20 1
    36   19   52 1
    37   19   53 1
    38   20   24 1
    39   20   21 1
    40   21   29 1
    41   21   22 2
    42   22   23 1
    43   22   25 1
    44   23   24 2
    45   23   54 1
    46   25   26 2
    47   25   27 am
    48   27   28 1
    49   27   30 1
    50   28   29 2
    51   28   55 1
    52   30   31 1
    53   30   56 1
    54   30   57 1
    55   31   36 ar
    56   31   32 ar
    57   32   33 ar
    58   32   58 1
    59   33   34 ar
    60   33   59 1
    61   34   35 ar
    62   34   60 1
    63   35   36 ar
    64   35   37 1
    65   36   61 1
@<TRIPOS>MOLECULE
ZINC12972628
   58    62     0     0     0
SMALL
USER_CHARGES
[(1S)-2-(1H-indol-3-yl)-2-oxo-1-phenyl-ethyl] 1-[(3R)-1,1-dioxothiolan-3-yl]-6-oxo-4,5-dihydropyridazine-3-carboxylate
@<TRIPOS>ATOM
      1 C1          2.4744    8.8203    2.9914 C.ar      1 <0>        -0.1061
      2 C2          1.3419    9.2065    3.6836 C.ar      1 <0>        -0.1183
      3 C3          0.1169    8.6470    3.3718 C.ar      1 <0>        -0.1007
      4 C4          0.0243    7.7016    2.3675 C.ar      1 <0>        -0.1153
      5 C5          1.1577    7.3116    1.6788 C.ar      1 <0>        -0.0885
      6 C6          2.3820    7.8743    1.9877 C.ar      1 <0>        -0.1169
      7 C7         -1.3111    7.0917    2.0276 C.3       1 <0>         0.1071
      8 H1         -1.9392    7.2153    2.7959 H         1 <0>         0.1039
      9 C8         -1.8750    7.7671    0.8040 C.2       1 <0>         0.4309
     10 O1         -1.8590    7.1951   -0.2667 O.2       1 <0>        -0.4289
     11 C9         -2.4238    9.0699    0.9033 C.2       1 <0>        -0.2679
     12 C10        -2.5202    9.8433    2.0404 C.2       1 <0>         0.1380
     13 N1         -3.0961   11.0225    1.7381 N.pl3     1 <0>        -0.5633
     14 H2         -3.2676   11.7323    2.3766 H         1 <0>         0.4236
     15 C11        -3.4153   11.0801    0.3965 C.ar      1 <0>         0.0752
     16 C12        -3.0132    9.8693   -0.1889 C.ar      1 <0>        -0.0537
     17 C13        -3.2148    9.6487   -1.5479 C.ar      1 <0>        -0.0714
     18 C14        -3.8113   10.6252   -2.3165 C.ar      1 <0>        -0.1298
     19 C15        -4.2094   11.8223   -1.7405 C.ar      1 <0>        -0.0997
     20 C16        -4.0159   12.0531   -0.3956 C.ar      1 <0>        -0.1204
     21 O2         -1.1426    5.6739    1.7634 O.3       1 <0>        -0.3061
     22 C17        -1.2584    4.8372    2.8149 C.2       1 <0>         0.5309
     23 O3         -1.4939    5.2812    3.9220 O.2       1 <0>        -0.4774
     24 C18        -1.1004    3.3929    2.6229 C.2       1 <0>         0.0884
     25 N2         -0.8445    2.9286    1.4401 N.2       1 <0>        -0.1598
     26 N3         -0.6945    1.5562    1.2164 N.am      1 <0>        -0.4469
     27 C19        -1.1683    0.6640    2.1082 C.2       1 <0>         0.4992
     28 O4         -1.0352   -0.5246    1.9091 O.2       1 <0>        -0.5007
     29 C20        -1.8640    1.1491    3.3546 C.3       1 <0>        -0.1417
     30 C21        -1.2317    2.4681    3.8035 C.3       1 <0>        -0.1050
     31 C22        -0.0127    1.0858    0.0080 C.3       1 <0>         0.1606
     32 H3          0.0021   -0.0041    0.0020 H         1 <0>         0.1365
     33 C23         1.4307    1.6160   -0.0029 C.3       1 <0>        -0.1432
     34 C24         2.0244    1.3751   -1.4202 C.3       1 <0>        -0.5721
     35 S1          0.5768    1.8157   -2.4715 S.o2      1 <0>         2.3747
     36 O5          0.6622    3.1897   -2.8237 O.2       1 <0>        -0.9190
     37 O6          0.4338    0.8394   -3.4941 O.2       1 <0>        -0.9310
     38 C25        -0.7719    1.5963   -1.2404 C.3       1 <0>        -0.5987
     39 H4          3.4314    9.2579    3.2345 H         1 <0>         0.1262
     40 H5          1.4141    9.9456    4.4677 H         1 <0>         0.1277
     41 H6         -0.7679    8.9487    3.9126 H         1 <0>         0.1226
     42 H7          1.0861    6.5698    0.8972 H         1 <0>         0.1328
     43 H8          3.2668    7.5728    1.4466 H         1 <0>         0.1279
     44 H9         -2.1825    9.5496    3.0233 H         1 <0>         0.1825
     45 H10        -2.9052    8.7173   -1.9984 H         1 <0>         0.1346
     46 H11        -3.9696   10.4572   -3.3716 H         1 <0>         0.1288
     47 H12        -4.6758   12.5808   -2.3516 H         1 <0>         0.1300
     48 H13        -4.3304   12.9886    0.0429 H         1 <0>         0.1242
     49 H14        -2.9219    1.3057    3.1436 H         1 <0>         0.1145
     50 H15        -1.7557    0.4060    4.1447 H         1 <0>         0.1279
     51 H16        -1.8624    2.9338    4.5609 H         1 <0>         0.1208
     52 H17        -0.2447    2.2733    4.2229 H         1 <0>         0.1084
     53 H18         1.4327    2.6828    0.2206 H         1 <0>         0.1009
     54 H19         2.0241    1.0834    0.7402 H         1 <0>         0.1055
     55 H20         2.8676    2.0386   -1.6124 H         1 <0>         0.1487
     56 H21         2.3084    0.3316   -1.5565 H         1 <0>         0.1444
     57 H22        -1.4925    0.8545   -1.5847 H         1 <0>         0.1481
     58 H23        -1.2634    2.5466   -1.0321 H         1 <0>         0.1569
@<TRIPOS>BOND
     1    1    6 ar
     2    1    2 ar
     3    1   39 1
     4    2    3 ar
     5    2   40 1
     6    3    4 ar
     7    3   41 1
     8    4    5 ar
     9    4    7 1
    10    5    6 ar
    11    5   42 1
    12    6   43 1
    13    7    8 1
    14    7    9 1
    15    7   21 1
    16    9   10 2
    17    9   11 1
    18   11   16 1
    19   11   12 2
    20   12   13 1
    21   12   44 1
    22   13   14 1
    23   13   15 1
    24   15   20 ar
    25   15   16 ar
    26   16   17 ar
    27   17   18 ar
    28   17   45 1
    29   18   19 ar
    30   18   46 1
    31   19   20 ar
    32   19   47 1
    33   20   48 1
    34   21   22 1
    35   22   23 2
    36   22   24 1
    37   24   30 1
    38   24   25 2
    39   25   26 1
    40   26   27 am
    41   26   31 1
    42   27   28 2
    43   27   29 1
    44   29   30 1
    45   29   49 1
    46   29   50 1
    47   30   51 1
    48   30   52 1
    49   31   32 1
    50   31   38 1
    51   31   33 1
    52   33   34 1
    53   33   53 1
    54   33   54 1
    55   34   35 1
    56   34   55 1
    57   34   56 1
    58   35   36 2
    59   35   37 2
    60   35   38 1
    61   38   57 1
    62   38   58 1
@<TRIPOS>MOLECULE
ZINC20794750
   53    56     0     0     0
SMALL
USER_CHARGES
[2-[4-(furan-2-carbonyl)piperazin-1-yl]-2-oxo-ethyl] 2-[(3-chlorobenzothiophene-2-carbonyl)amino]acetate
@<TRIPOS>ATOM
      1 C1         -0.0965    1.2986   -1.7100 C.ar      1 <0>        -0.1224
      2 C2         -1.2955    1.9123   -1.3676 C.ar      1 <0>        -0.0700
      3 C3         -1.3284    3.2779   -1.1715 C.ar      1 <0>        -0.0829
      4 C4         -0.1737    4.0149   -1.3283 C.ar      1 <0>        -0.0911
      5 C5          1.0592    3.4178   -1.6819 C.ar      1 <0>        -0.1100
      6 C6          1.0482    2.0115   -1.8682 C.ar      1 <0>        -0.0522
      7 C7          2.1459    4.3043   -1.8035 C.2       1 <0>         0.0269
      8 C8          1.9631    5.6348   -1.5840 C.2       1 <0>        -0.1978
      9 S1          0.2269    5.7383   -1.1852 S.3       1 <0>         0.1018
     10 C9          2.9510    6.7185   -1.6576 C.2       1 <0>         0.6085
     11 O1          4.1062    6.4698   -1.9476 O.2       1 <0>        -0.5003
     12 N1          2.5783    7.9886   -1.4040 N.am      1 <0>        -0.7303
     13 C10         3.5641    9.0698   -1.4775 C.3       1 <0>         0.1320
     14 C11         2.8964   10.3812   -1.1528 C.2       1 <0>         0.4667
     15 O2          1.7180   10.4098   -0.8873 O.2       1 <0>        -0.5016
     16 O3          3.6107   11.5176   -1.1586 O.3       1 <0>        -0.3241
     17 C12         2.9021   12.7433   -0.8364 C.3       1 <0>         0.0464
     18 C13         3.8590   13.9063   -0.8924 C.2       1 <0>         0.5202
     19 O4          5.0234   13.7204   -1.1760 O.2       1 <0>        -0.5086
     20 N2          3.4207   15.1529   -0.6274 N.am      1 <0>        -0.6117
     21 C14         2.0111   15.3939   -0.2884 C.3       1 <0>         0.0861
     22 C15         1.9553   16.1288    1.0616 C.3       1 <0>         0.0960
     23 N3          2.8770   17.2723    1.0108 N.am      1 <0>        -0.6074
     24 C16         4.2854   17.0321    0.6663 C.3       1 <0>         0.0801
     25 C17         4.3424   16.2965   -0.6783 C.3       1 <0>         0.0988
     26 C18         2.4385   18.5191    1.2749 C.2       1 <0>         0.6080
     27 O5          1.2488   18.7267    1.4245 O.2       1 <0>        -0.5152
     28 C19         3.3952   19.6255    1.3820 C.2       1 <0>        -0.0877
     29 C20         3.0811   20.9491    1.5002 C.2       1 <0>        -0.1096
     30 C21         4.2966   21.6473    1.5725 C.2       1 <0>        -0.2226
     31 C22         5.2868   20.7310    1.4963 C.2       1 <0>        -0.0066
     32 O6          4.7396   19.5134    1.3870 O.3       1 <0>        -0.1617
     33 Cl1         3.7161    3.7015   -2.2333 Cl        1 <0>        -0.0175
     34 H1         -0.0758    0.2290   -1.8581 H         1 <0>         0.1357
     35 H2         -2.1941    1.3243   -1.2521 H         1 <0>         0.1424
     36 H3         -2.2529    3.7664   -0.9012 H         1 <0>         0.1403
     37 H4          1.9610    1.5019   -2.1394 H         1 <0>         0.1336
     38 H5          1.5339    8.2134   -1.1418 H         1 <0>         0.4357
     39 H6          4.3709    8.8801   -0.7543 H         1 <0>         0.1223
     40 H7          3.9848    9.1140   -2.4929 H         1 <0>         0.1223
     41 H8          2.0915   12.9001   -1.5633 H         1 <0>         0.1086
     42 H9          2.4775   12.6662    0.1754 H         1 <0>         0.1085
     43 H10         1.5458   16.0101   -1.0718 H         1 <0>         0.0863
     44 H11         1.4819   14.4323   -0.2156 H         1 <0>         0.1008
     45 H12         0.9298   16.4820    1.2446 H         1 <0>         0.1138
     46 H13         2.2553   15.4412    1.8661 H         1 <0>         0.0809
     47 H14         4.8132   17.9941    0.5892 H         1 <0>         0.1227
     48 H15         4.7548   16.4180    1.4490 H         1 <0>         0.0811
     49 H16         5.3647   15.9355   -0.8643 H         1 <0>         0.1129
     50 H17         4.0400   16.9753   -1.4893 H         1 <0>         0.0790
     51 H18         2.0896   21.3760    1.5316 H         1 <0>         0.1616
     52 H19         4.4177   22.7160    1.6707 H         1 <0>         0.1590
     53 H20         6.3451   20.9447    1.5239 H         1 <0>         0.2123
@<TRIPOS>BOND
     1    1    6 ar
     2    1    2 ar
     3    1   34 1
     4    2    3 ar
     5    2   35 1
     6    3    4 ar
     7    3   36 1
     8    4    9 1
     9    4    5 ar
    10    5    6 ar
    11    5    7 1
    12    6   37 1
    13    7    8 2
    14    7   33 1
    15    8    9 1
    16    8   10 1
    17   10   11 2
    18   10   12 am
    19   12   13 1
    20   12   38 1
    21   13   14 1
    22   13   39 1
    23   13   40 1
    24   14   15 2
    25   14   16 1
    26   16   17 1
    27   17   18 1
    28   17   41 1
    29   17   42 1
    30   18   19 2
    31   18   20 am
    32   20   25 1
    33   20   21 1
    34   21   22 1
    35   21   43 1
    36   21   44 1
    37   22   23 1
    38   22   45 1
    39   22   46 1
    40   23   24 1
    41   23   26 am
    42   24   25 1
    43   24   47 1
    44   24   48 1
    45   25   49 1
    46   25   50 1
    47   26   27 2
    48   26   28 1
    49   28   32 1
    50   28   29 2
    51   29   30 1
    52   29   51 1
    53   30   31 2
    54   30   52 1
    55   31   32 1
    56   31   53 1
@<TRIPOS>MOLECULE
ZINC34889745
   59    62     0     0     0
SMALL
USER_CHARGES

@<TRIPOS>ATOM
      1 C1          1.3224    0.5502    0.6483 C.3       1 <0>         0.0209
      2 O1          0.5684   -0.5761    0.1956 O.3       1 <0>        -0.2965
      3 C2          0.6585   -0.8889   -1.1248 C.ar      1 <0>         0.1597
      4 C3          1.4568   -0.1339   -1.9594 C.ar      1 <0>        -0.1589
      5 C4          1.5474   -0.4600   -3.3202 C.ar      1 <0>        -0.0343
      6 C5          0.8259   -1.5516   -3.8240 C.ar      1 <0>        -0.0838
      7 C6          0.0326   -2.2983   -2.9828 C.ar      1 <0>        -0.0929
      8 C7         -0.0518   -1.9768   -1.6336 C.ar      1 <0>         0.0500
      9 O2         -0.8319   -2.7210   -0.8084 O.3       1 <0>        -0.6468
     10 S1         -2.2680   -2.2281   -0.7031 S.o2      1 <0>         2.5913
     11 O3         -2.8243   -2.9608    0.3800 O.2       1 <0>        -0.9263
     12 O4         -2.1619   -0.8124   -0.6414 O.2       1 <0>        -0.9446
     13 C8         -3.0483   -2.7288   -2.2623 C.3       1 <0>        -0.7005
     14 C9          2.3923    0.3372   -4.2122 C.2       1 <0>         0.0737
     15 C10         3.0920   -0.2756   -5.2274 C.2       1 <0>        -0.2065
     16 C11         3.8159    0.5093   -6.2673 C.2       1 <0>         0.4633
     17 N1          4.3817    1.6628   -6.0310 N.2       1 <0>        -0.6379
     18 N2          3.8307   -0.1167   -7.5322 N.pl3     1 <0>        -0.4332
     19 C12         3.6609   -1.4842   -7.5674 C.2       1 <0>         0.3959
     20 N3          3.3888   -2.2811   -6.5647 N.2       1 <0>        -0.5408
     21 C13         3.1710   -1.7532   -5.3416 C.2       1 <0>         0.5426
     22 O5          3.0388   -2.4670   -4.3606 O.2       1 <0>        -0.4253
     23 S2          3.8828   -1.8416   -9.2901 S.3       1 <0>         0.0941
     24 C14         4.0827   -0.1573   -9.8548 C.2       1 <0>         0.1357
     25 N4          4.0123    0.5169   -8.7430 N.2       1 <0>        -0.2574
     26 C15         4.2815    0.3522  -11.2591 C.3       1 <0>        -0.0316
     27 C16         4.4032    1.8772  -11.2358 C.3       1 <0>        -0.1088
     28 C17         4.6051    2.3945  -12.6615 C.3       1 <0>        -0.0867
     29 C18         5.9443    1.8897  -13.2024 C.3       1 <0>        -0.1195
     30 C19         6.1462    2.4070  -14.6280 C.3       1 <0>        -0.1209
     31 C20         6.1431    3.9370  -14.6206 C.3       1 <0>        -0.1221
     32 C21         4.8039    4.4417  -14.0798 C.3       1 <0>        -0.1207
     33 C22         4.6020    3.9244  -12.6541 C.3       1 <0>        -0.1141
     34 H1          2.3820    0.3776    0.4599 H         1 <0>         0.0617
     35 H2          0.9989    1.4430    0.1131 H         1 <0>         0.0642
     36 H3          1.1615    0.6893    1.7174 H         1 <0>         0.1090
     37 H4          2.0099    0.7061   -1.5658 H         1 <0>         0.1529
     38 H5          0.8924   -1.8062   -4.8714 H         1 <0>         0.1349
     39 H6         -0.5228   -3.1389   -3.3718 H         1 <0>         0.1532
     40 H7         -3.0004   -3.8133   -2.3607 H         1 <0>         0.1350
     41 H8         -4.0904   -2.4093   -2.2661 H         1 <0>         0.1379
     42 H9         -2.5229   -2.2647   -3.0969 H         1 <0>         0.1296
     43 H10         2.4665    1.4057   -4.0737 H         1 <0>         0.1618
     44 H11         4.8410    2.1329   -6.7444 H         1 <0>         0.3634
     45 H12         5.1916   -0.0786  -11.6765 H         1 <0>         0.1158
     46 H13         3.4285    0.0651  -11.8739 H         1 <0>         0.1145
     47 H14         3.4931    2.3080  -10.8184 H         1 <0>         0.0752
     48 H15         5.2563    2.1642  -10.6210 H         1 <0>         0.0744
     49 H16         3.7969    2.0326  -13.2971 H         1 <0>         0.0760
     50 H17         6.7525    2.2516  -12.5667 H         1 <0>         0.0639
     51 H18         5.9465    0.7997  -13.2076 H         1 <0>         0.0640
     52 H19         7.1003    2.0475  -15.0134 H         1 <0>         0.0619
     53 H20         5.3380    2.0452  -15.2637 H         1 <0>         0.0624
     54 H21         6.9513    4.2989  -13.9850 H         1 <0>         0.0610
     55 H22         6.2869    4.3056  -15.6363 H         1 <0>         0.0608
     56 H23         4.8017    5.5317  -14.0745 H         1 <0>         0.0617
     57 H24         3.9957    4.0799  -14.7154 H         1 <0>         0.0620
     58 H25         3.6479    4.2840  -12.2688 H         1 <0>         0.0627
     59 H26         5.4102    4.2863  -12.0185 H         1 <0>         0.0629
@<TRIPOS>BOND
     1    1    2 1
     2    1   34 1
     3    1   35 1
     4    1   36 1
     5    2    3 1
     6    3    8 ar
     7    3    4 ar
     8    4    5 ar
     9    4   37 1
    10    5    6 ar
    11    5   14 1
    12    6    7 ar
    13    6   38 1
    14    7    8 ar
    15    7   39 1
    16    8    9 1
    17    9   10 1
    18   10   11 2
    19   10   12 2
    20   10   13 1
    21   13   40 1
    22   13   41 1
    23   13   42 1
    24   14   15 2
    25   14   43 1
    26   15   21 1
    27   15   16 1
    28   16   17 2
    29   16   18 1
    30   17   44 1
    31   18   25 1
    32   18   19 1
    33   19   20 2
    34   19   23 1
    35   20   21 1
    36   21   22 2
    37   23   24 1
    38   24   25 2
    39   24   26 1
    40   26   27 1
    41   26   45 1
    42   26   46 1
    43   27   28 1
    44   27   47 1
    45   27   48 1
    46   28   33 1
    47   28   29 1
    48   28   49 1
    49   29   30 1
    50   29   50 1
    51   29   51 1
    52   30   31 1
    53   30   52 1
    54   30   53 1
    55   31   32 1
    56   31   54 1
    57   31   55 1
    58   32   33 1
    59   32   56 1
    60   32   57 1
    61   33   58 1
    62   33   59 1
@<TRIPOS>MOLECULE
ZINC03634435
   62    65     0     0     0
SMALL
USER_CHARGES

@<TRIPOS>ATOM
      1 C1         -0.0570    1.5391   -0.0010 C.3       1 <0>        -0.0665
      2 C2          0.2963    0.0779    0.1045 C.2       1 <0>         0.0997
      3 C3          0.4294   -0.8130   -0.9655 C.2       1 <0>        -0.2603
      4 C4          0.7534   -2.0255   -0.4599 C.2       1 <0>         0.0686
      5 N1          0.8230   -1.9062    0.8825 N.pl3     1 <0>        -0.3785
      6 N2          0.5371   -0.5751    1.2124 N.2       1 <0>        -0.3025
      7 C5          1.1458   -2.9781    1.8275 C.3       1 <0>         0.1024
      8 C6          0.2437   -0.4812   -2.4238 C.3       1 <0>         0.1967
      9 N3          1.4540    0.1670   -2.9350 N.am      1 <0>        -0.5968
     10 C7          2.5319   -0.6425   -3.5087 C.3       1 <0>         0.0828
     11 C8          1.5757    1.5080   -2.8776 C.2       1 <0>         0.5956
     12 O1          0.7211    2.1728   -2.3248 O.2       1 <0>        -0.5138
     13 C9          2.7476    2.1700   -3.4865 C.2       1 <0>         0.0708
     14 C10         3.0663    3.5437   -3.3916 C.2       1 <0>        -0.2666
     15 C11         4.2073    3.7453   -4.0795 C.2       1 <0>         0.3657
     16 N4          4.6076    2.5473   -4.6001 N.pl3     1 <0>        -0.4003
     17 N5          3.6829    1.5796   -4.2096 N.2       1 <0>        -0.2497
     18 C12         5.8128    2.3777   -5.4167 C.3       1 <0>         0.1283
     19 H1          6.6157    1.9702   -4.8023 H         1 <0>         0.1336
     20 C13         6.2330    3.7438   -5.9707 C.3       1 <0>        -0.1485
     21 C14         6.2847    4.7735   -4.8367 C.3       1 <0>         0.2036
     22 H2          6.6309    5.7306   -5.2267 H         1 <0>         0.1188
     23 N6          4.9261    4.9272   -4.2799 N.pl3     1 <0>        -0.7236
     24 C15         7.2256    4.2951   -3.7611 C.ar      1 <0>        -0.1169
     25 C16         6.8021    3.3513   -2.8439 C.ar      1 <0>        -0.1093
     26 C17         7.6614    2.9093   -1.8554 C.ar      1 <0>        -0.1687
     27 C18         8.9507    3.4119   -1.7826 C.ar      1 <0>         0.1094
     28 C19         9.3771    4.3615   -2.7060 C.ar      1 <0>         0.1029
     29 C20         8.5123    4.7967   -3.6973 C.ar      1 <0>        -0.1568
     30 O2         10.6415    4.8577   -2.6387 O.3       1 <0>        -0.3042
     31 C21        11.0102    5.8294   -3.6195 C.3       1 <0>         0.0248
     32 O3          9.7972    2.9784   -0.8105 O.3       1 <0>        -0.3042
     33 C22         9.2910    2.0030    0.1030 C.3       1 <0>         0.0248
     34 C23         5.5173    1.4214   -6.5739 C.3       1 <0>         0.4553
     35 F1          4.4905    1.9489   -7.3642 F         1 <0>        -0.1725
     36 F2          6.6689    1.2610   -7.3519 F         1 <0>        -0.1732
     37 F3          5.1225    0.1800   -6.0639 F         1 <0>        -0.1610
     38 H3          0.8551    2.1270   -0.1039 H         1 <0>         0.0778
     39 H4         -0.6917    1.6974   -0.8729 H         1 <0>         0.0926
     40 H5         -0.5900    1.8498    0.8976 H         1 <0>         0.0595
     41 H6          0.9253   -2.9274   -1.0287 H         1 <0>         0.1718
     42 H7          2.2233   -3.0077    1.9892 H         1 <0>         0.0731
     43 H8          0.6411   -2.7910    2.7754 H         1 <0>         0.0889
     44 H9          0.8130   -3.9332    1.4211 H         1 <0>         0.0870
     45 H10         0.0580   -1.3976   -2.9841 H         1 <0>         0.0850
     46 H11        -0.6053    0.1928   -2.5379 H         1 <0>         0.0936
     47 H12         2.4149   -0.6885   -4.5915 H         1 <0>         0.0611
     48 H13         3.4938   -0.1910   -3.2661 H         1 <0>         0.0844
     49 H14         2.4889   -1.6502   -3.0955 H         1 <0>         0.0661
     50 H15         2.4981    4.2955   -2.8640 H         1 <0>         0.1620
     51 H16         7.2183    3.6608   -6.4295 H         1 <0>         0.1196
     52 H17         5.5118    4.0675   -6.7211 H         1 <0>         0.1031
     53 H18         4.5543    5.7971   -4.0655 H         1 <0>         0.4280
     54 H19         5.7975    2.9588   -2.8996 H         1 <0>         0.1307
     55 H20         7.3278    2.1725   -1.1397 H         1 <0>         0.1359
     56 H21         8.8420    5.5308   -4.4175 H         1 <0>         0.1396
     57 H22        12.0411    6.1413   -3.4524 H         1 <0>         0.1027
     58 H23        10.9191    5.3939   -4.6146 H         1 <0>         0.0561
     59 H24        10.3515    6.6942   -3.5397 H         1 <0>         0.0558
     60 H25         8.4267    2.4104    0.6275 H         1 <0>         0.0562
     61 H26         8.9944    1.1098   -0.4468 H         1 <0>         0.0557
     62 H27        10.0657    1.7448    0.8250 H         1 <0>         0.1036
@<TRIPOS>BOND
     1    1    2 1
     2    1   38 1
     3    1   39 1
     4    1   40 1
     5    2    6 2
     6    2    3 1
     7    3    4 2
     8    3    8 1
     9    4    5 1
    10    4   41 1
    11    5    6 1
    12    5    7 1
    13    7   42 1
    14    7   43 1
    15    7   44 1
    16    8    9 1
    17    8   45 1
    18    8   46 1
    19    9   10 1
    20    9   11 am
    21   10   47 1
    22   10   48 1
    23   10   49 1
    24   11   12 2
    25   11   13 1
    26   13   17 2
    27   13   14 1
    28   14   15 2
    29   14   50 1
    30   15   23 1
    31   15   16 1
    32   16   17 1
    33   16   18 1
    34   18   19 1
    35   18   20 1
    36   18   34 1
    37   20   21 1
    38   20   51 1
    39   20   52 1
    40   21   22 1
    41   21   23 1
    42   21   24 1
    43   23   53 1
    44   24   29 ar
    45   24   25 ar
    46   25   26 ar
    47   25   54 1
    48   26   27 ar
    49   26   55 1
    50   27   28 ar
    51   27   32 1
    52   28   29 ar
    53   28   30 1
    54   29   56 1
    55   30   31 1
    56   31   57 1
    57   31   58 1
    58   31   59 1
    59   32   33 1
    60   33   60 1
    61   33   61 1
    62   33   62 1
    63   34   35 1
    64   34   36 1
    65   34   37 1
@<TRIPOS>MOLECULE
ZINC13263137
   49    50     0     0     0
SMALL
USER_CHARGES
2-[[3,5-bis(methoxycarbonyl)-4-methyl-2-thienyl]sulfonylamino]-4,5-dimethoxy-benzoic acid
@<TRIPOS>ATOM
      1 C1         -0.3186    3.4216    4.9574 C.3       1 <0>        -0.1173
      2 C2         -0.9227    3.0345    3.6322 C.2       1 <0>        -0.0238
      3 C3         -0.1317    2.5834    2.5857 C.2       1 <0>        -0.0156
      4 C4         -0.7576    2.2445    1.3946 C.2       1 <0>        -0.7404
      5 S1         -2.4289    2.5581    1.7302 S.3       1 <0>         0.3719
      6 C5         -2.2725    3.1145    3.4169 C.2       1 <0>        -0.2137
      7 C6         -3.3238    3.5532    4.3390 C.2       1 <0>         0.5577
      8 O1         -3.0349    3.9091    5.4654 O.2       1 <0>        -0.4792
      9 O2         -4.6116    3.5622    3.9384 O.3       1 <0>        -0.3498
     10 C7         -5.5994    4.0087    4.9044 C.3       1 <0>         0.0381
     11 S2         -0.0308    1.6487   -0.0959 S.o2      1 <0>         2.7084
     12 O3          1.3222    2.0829   -0.0898 O.2       1 <0>        -0.9287
     13 O4         -0.9311    1.9755   -1.1456 O.2       1 <0>        -0.9414
     14 N1          0.0021   -0.0041    0.0020 N.pl3     1 <0>        -1.0099
     15 C8         -1.1844   -0.7162    0.1383 C.ar      1 <0>         0.1788
     16 C9         -2.3351   -0.2800   -0.5018 C.ar      1 <0>        -0.2534
     17 C10        -3.5153   -0.9926   -0.3699 C.ar      1 <0>         0.1309
     18 C11        -3.5574   -2.1461    0.4159 C.ar      1 <0>         0.0696
     19 C12        -2.4224   -2.5872    1.0613 C.ar      1 <0>        -0.1061
     20 C13        -1.2228   -1.8763    0.9293 C.ar      1 <0>        -0.1232
     21 C14        -0.0091   -2.3422    1.6160 C.2       1 <0>         0.4978
     22 O5          1.0305   -1.7231    1.4999 O.co2     1 <0>        -0.6197
     23 O6         -4.7227   -2.8371    0.5445 O.3       1 <0>        -0.3106
     24 C15        -4.6955   -4.0083    1.3628 C.3       1 <0>         0.0255
     25 O7         -4.6377   -0.5646   -1.0030 O.3       1 <0>        -0.3028
     26 C16        -4.5255    0.6223   -1.7909 C.3       1 <0>         0.0214
     27 C17         1.3281    2.4674    2.7345 C.2       1 <0>         0.5137
     28 O8          2.0442    3.4088    2.4548 O.2       1 <0>        -0.4715
     29 O9          1.8706    1.3173    3.1809 O.3       1 <0>        -0.3274
     30 C18         3.3169    1.2744    3.3029 C.3       1 <0>         0.0371
     31 H1         -0.0623    4.4810    4.9443 H         1 <0>         0.0872
     32 H2         -1.0380    3.2318    5.7540 H         1 <0>         0.1002
     33 H3          0.5814    2.8322    5.1326 H         1 <0>         0.0736
     34 H4         -5.5697    3.3608    5.7804 H         1 <0>         0.0685
     35 H5         -5.3783    5.0335    5.2028 H         1 <0>         0.0673
     36 H6         -6.5916    3.9671    4.4552 H         1 <0>         0.1081
     37 H7          0.8490   -0.4754   -0.0357 H         1 <0>         0.4455
     38 H8         -2.3097    0.6142   -1.1070 H         1 <0>         0.1685
     39 H9         -2.4578   -3.4801    1.6679 H         1 <0>         0.1518
     40 H10        -5.6862   -4.4625    1.3800 H         1 <0>         0.0949
     41 H11        -3.9767   -4.7194    0.9556 H         1 <0>         0.0560
     42 H12        -4.4029   -3.7362    2.3770 H         1 <0>         0.0555
     43 H13        -3.7866    0.4679   -2.5772 H         1 <0>         0.0586
     44 H14        -5.4915    0.8527   -2.2403 H         1 <0>         0.0979
     45 H15        -4.2130    1.4515   -1.1563 H         1 <0>         0.0558
     46 H16         3.6215    0.2949    3.6714 H         1 <0>         0.1093
     47 H17         3.7692    1.4523    2.3272 H         1 <0>         0.0707
     48 H18         3.6456    2.0438    4.0015 H         1 <0>         0.0607
     49 O10        -0.0492   -3.4560    2.3744 O.co2     1 <0>        -0.7468
@<TRIPOS>BOND
     1    1    2 1
     2    1   31 1
     3    1   32 1
     4    1   33 1
     5    2    6 2
     6    2    3 1
     7    3    4 2
     8    3   27 1
     9    4    5 1
    10    4   11 1
    11    5    6 1
    12    6    7 1
    13    7    8 2
    14    7    9 1
    15    9   10 1
    16   10   34 1
    17   10   35 1
    18   10   36 1
    19   11   12 2
    20   11   13 2
    21   11   14 1
    22   14   15 1
    23   14   37 1
    24   15   20 ar
    25   15   16 ar
    26   16   17 ar
    27   16   38 1
    28   17   18 ar
    29   17   25 1
    30   18   19 ar
    31   18   23 1
    32   19   20 ar
    33   19   39 1
    34   20   21 1
    35   21   22 2
    36   21   49 1
    37   23   24 1
    38   24   40 1
    39   24   41 1
    40   24   42 1
    41   25   26 1
    42   26   43 1
    43   26   44 1
    44   26   45 1
    45   27   28 2
    46   27   29 1
    47   29   30 1
    48   30   46 1
    49   30   47 1
    50   30   48 1
@<TRIPOS>MOLECULE
ZINC27572683
   55    57     0     0     0
SMALL
USER_CHARGES
N-tert-butyl-3-[(1,1-dioxo-1,2-benzothiazol-3-yl)-[(2-hydroxy-5-nitro-phenyl)methyleneamino]amino]propanamide
@<TRIPOS>ATOM
      1 C1          2.1270    6.0672    0.3908 C.3       1 <0>        -0.1682
      2 C2          2.2445    5.5635   -1.0491 C.3       1 <0>         0.1722
      3 C3          3.5666    6.0436   -1.6511 C.3       1 <0>        -0.1564
      4 C4          1.0793    6.1091   -1.8770 C.3       1 <0>        -0.1663
      5 N1          2.2069    4.0990   -1.0587 N.am      1 <0>        -0.7333
      6 C5          1.1304    3.4494   -0.5734 C.2       1 <0>         0.5250
      7 O1          0.1928    4.0772   -0.1286 O.2       1 <0>        -0.5329
      8 C6          1.0916    1.9429   -0.5833 C.3       1 <0>        -0.1872
      9 C7         -0.2305    1.4628    0.0187 C.3       1 <0>         0.1327
     10 N2         -0.2681   -0.0017    0.0091 N.pl3     1 <0>        -0.3858
     11 C8         -0.6140   -0.6744   -1.1425 C.2       1 <0>         0.4549
     12 N3         -0.7719   -1.9608   -1.1281 N.2       1 <0>        -0.8817
     13 S1         -1.1834   -2.3884   -2.6929 S.o2      1 <0>         2.5548
     14 O2         -2.5320   -2.8361   -2.6829 O.2       1 <0>        -0.9482
     15 O3         -0.1092   -3.1497   -3.2274 O.2       1 <0>        -0.9475
     16 C9         -1.1500   -0.7927   -3.4627 C.ar      1 <0>        -0.6138
     17 C10        -0.8024    0.0582   -2.4039 C.ar      1 <0>        -0.1061
     18 C11        -0.6885    1.4277   -2.6874 C.ar      1 <0>        -0.0869
     19 C12        -0.9141    1.8945   -3.9631 C.ar      1 <0>        -0.0859
     20 C13        -1.2557    1.0302   -4.9876 C.ar      1 <0>        -0.0989
     21 C14        -1.3729   -0.3279   -4.7255 C.ar      1 <0>         0.0032
     22 N4          0.0476   -0.7182    1.1709 N.2       1 <0>        -0.2291
     23 C15         0.1727   -2.0095    1.1233 C.2       1 <0>         0.1545
     24 C16         0.3320   -2.7809    2.3689 C.ar      1 <0>        -0.2116
     25 C17         0.5790   -4.1546    2.3176 C.ar      1 <0>         0.0375
     26 C18         0.7275   -4.8704    3.4869 C.ar      1 <0>        -0.1776
     27 C19         0.6333   -4.2330    4.7123 C.ar      1 <0>        -0.0101
     28 C20         0.3897   -2.8740    4.7764 C.ar      1 <0>        -0.2396
     29 C21         0.2423   -2.1390    3.6116 C.ar      1 <0>         0.3193
     30 O4          0.0077   -0.8027    3.6735 O.3       1 <0>        -0.6262
     31 N5          0.9892   -6.3263    3.4317 N.pl3     1 <0>         0.0666
     32 O5          1.0730   -6.8896    2.3550 O.2       1 <0>        -0.2191
     33 O6          1.1208   -6.9610    4.4629 O.3       1 <0>        -0.2218
     34 H1          1.1764    5.7220    0.8236 H         1 <0>         0.0810
     35 H2          2.1553    7.1668    0.3980 H         1 <0>         0.0612
     36 H3          2.9648    5.6749    0.9860 H         1 <0>         0.0548
     37 H4          3.6510    5.6814   -2.6863 H         1 <0>         0.0618
     38 H5          4.4044    5.6513   -1.0559 H         1 <0>         0.0629
     39 H6          3.5949    7.1432   -1.6439 H         1 <0>         0.0723
     40 H7          1.1638    5.7469   -2.9122 H         1 <0>         0.0529
     41 H8          1.1076    7.2087   -1.8698 H         1 <0>         0.0618
     42 H9          0.1287    5.7639   -1.4442 H         1 <0>         0.0800
     43 H10         3.0573    3.5296   -1.4620 H         1 <0>         0.4212
     44 H11         1.1761    1.5808   -1.6185 H         1 <0>         0.1038
     45 H12         1.9294    1.5506    0.0119 H         1 <0>         0.1140
     46 H13        -0.3150    1.8250    1.0539 H         1 <0>         0.1265
     47 H14        -1.0683    1.8550   -0.5765 H         1 <0>         0.1034
     48 H15        -0.4224    2.1189   -1.9013 H         1 <0>         0.1595
     49 H16        -0.8225    2.9511   -4.1668 H         1 <0>         0.1402
     50 H17        -1.4296    1.4091   -5.9839 H         1 <0>         0.1434
     51 H18        -1.6387   -1.0128   -5.5172 H         1 <0>         0.1421
     52 H19         0.1598   -2.5279    0.1532 H         1 <0>         0.1859
     53 H20         0.6532   -4.6555    1.3637 H         1 <0>         0.1341
     54 H21         0.7513   -4.8009    5.6234 H         1 <0>         0.1269
     55 H22         0.3183   -2.3837    5.7360 H         1 <0>         0.1235
@<TRIPOS>BOND
     1    1    2 1
     2    1   34 1
     3    1   35 1
     4    1   36 1
     5    2    3 1
     6    2    4 1
     7    2    5 1
     8    3   37 1
     9    3   38 1
    10    3   39 1
    11    4   40 1
    12    4   41 1
    13    4   42 1
    14    5    6 am
    15    5   43 1
    16    6    7 2
    17    6    8 1
    18    8    9 1
    19    8   44 1
    20    8   45 1
    21    9   10 1
    22    9   46 1
    23    9   47 1
    24   10   11 1
    25   10   22 1
    26   11   17 1
    27   11   12 2
    28   12   13 1
    29   13   14 2
    30   13   15 2
    31   13   16 1
    32   16   21 ar
    33   16   17 ar
    34   17   18 ar
    35   18   19 ar
    36   18   48 1
    37   19   20 ar
    38   19   49 1
    39   20   21 ar
    40   20   50 1
    41   21   51 1
    42   22   23 2
    43   23   24 1
    44   23   52 1
    45   24   29 ar
    46   24   25 ar
    47   25   26 ar
    48   25   53 1
    49   26   27 ar
    50   26   31 1
    51   27   28 ar
    52   27   54 1
    53   28   29 ar
    54   28   55 1
    55   29   30 1
    56   31   32 2
    57   31   33 1
@<TRIPOS>MOLECULE
ZINC40077953
   63    65     0     0     0
SMALL
USER_CHARGES

@<TRIPOS>ATOM
      1 C1         -6.5724    2.1909    3.9716 C.3       1 <0>        -0.1501
      2 C2         -6.5363    0.7035    4.3283 C.3       1 <0>        -0.1232
      3 C3         -6.5286   -0.1287    3.0445 C.3       1 <0>         0.0571
      4 O1         -6.4949   -1.5180    3.3776 O.3       1 <0>        -0.3166
      5 C4         -6.4839   -2.3989    2.3455 C.ar      1 <0>         0.1414
      6 C5         -6.4995   -1.9324    1.0357 C.ar      1 <0>        -0.2246
      7 C6         -6.4885   -2.8227   -0.0142 C.ar      1 <0>        -0.0337
      8 C7         -6.4611   -4.1977    0.2379 C.ar      1 <0>        -0.1736
      9 C8         -6.4451   -4.6625    1.5566 C.ar      1 <0>        -0.0243
     10 C9         -6.4514   -3.7654    2.6007 C.ar      1 <0>        -0.1686
     11 C10        -6.4497   -5.1560   -0.8848 C.2       1 <0>         0.5069
     12 O2         -6.5725   -4.7559   -2.0275 O.2       1 <0>        -0.4770
     13 C11        -6.2905   -6.5900   -0.6231 C.2       1 <0>        -0.5091
     14 C12        -7.2131   -7.5567   -0.8366 C.2       1 <0>         0.2681
     15 C13        -6.6482   -8.8634   -0.4393 C.2       1 <0>         0.5155
     16 O3         -7.2322   -9.9264   -0.5112 O.2       1 <0>        -0.5156
     17 N1         -5.3917   -8.7018    0.0137 N.am      1 <0>        -0.6124
     18 C14        -5.0624   -7.2740   -0.0693 C.3       1 <0>         0.2599
     19 H1         -4.8330   -6.8864    0.9233 H         1 <0>         0.0713
     20 C15        -3.8904   -7.0620   -0.9927 C.ar      1 <0>        -0.0301
     21 C16        -3.7956   -7.7926   -2.1639 C.ar      1 <0>        -0.1047
     22 C17        -2.7255   -7.6036   -3.0137 C.ar      1 <0>        -0.0513
     23 C18        -1.7368   -6.6724   -2.6896 C.ar      1 <0>        -0.1436
     24 C19        -1.8388   -5.9386   -1.5061 C.ar      1 <0>        -0.0608
     25 C20        -2.9171   -6.1336   -0.6682 C.ar      1 <0>        -0.1309
     26 C21        -0.5877   -6.4650   -3.5945 C.2       1 <0>         0.5118
     27 O4         -0.5015   -7.1052   -4.6232 O.2       1 <0>        -0.5103
     28 O5          0.3645   -5.5658   -3.2789 O.3       1 <0>        -0.3514
     29 C22         1.4470   -5.4170   -4.1997 C.3       1 <0>         0.0352
     30 C23        -4.5065   -9.7640    0.4979 C.3       1 <0>         0.1385
     31 C24        -4.7259   -9.9660    1.9985 C.3       1 <0>         0.0440
     32 O6         -6.0485  -10.4575    2.2247 O.3       1 <0>        -0.3576
     33 C25        -6.3954  -10.5784    3.6057 C.3       1 <0>         0.0627
     34 C26        -7.7777  -11.2223    3.7298 C.3       1 <0>         0.0781
     35 O7         -7.7244  -12.5633    3.2392 O.3       1 <0>        -0.5649
     36 O8         -8.4554   -7.3585   -1.3348 O.3       1 <0>        -0.6529
     37 H2         -6.5779    2.7839    4.8862 H         1 <0>         0.0630
     38 H3         -5.6928    2.4441    3.3798 H         1 <0>         0.0574
     39 H4         -7.4723    2.4045    3.3947 H         1 <0>         0.0576
     40 H5         -5.6365    0.4900    4.9051 H         1 <0>         0.0726
     41 H6         -7.4159    0.4504    4.9201 H         1 <0>         0.0728
     42 H7         -7.4284    0.0848    2.4676 H         1 <0>         0.0621
     43 H8         -5.6490    0.1244    2.4526 H         1 <0>         0.0619
     44 H9         -6.5207   -0.8702    0.8418 H         1 <0>         0.1256
     45 H10        -6.5014   -2.4595   -1.0313 H         1 <0>         0.1313
     46 H11        -6.4239   -5.7238    1.7556 H         1 <0>         0.1406
     47 H12        -6.4348   -4.1234    3.6194 H         1 <0>         0.1297
     48 H13        -4.5608   -8.5128   -2.4132 H         1 <0>         0.1294
     49 H14        -2.6524   -8.1748   -3.9274 H         1 <0>         0.1331
     50 H15        -1.0773   -5.2170   -1.2493 H         1 <0>         0.1335
     51 H16        -2.9996   -5.5635    0.2454 H         1 <0>         0.1297
     52 H17         1.0590   -5.1046   -5.1692 H         1 <0>         0.0596
     53 H18         2.1408   -4.6639   -3.8262 H         1 <0>         0.1005
     54 H19         1.9670   -6.3691   -4.3062 H         1 <0>         0.0590
     55 H20        -4.7292  -10.6913   -0.0300 H         1 <0>         0.0869
     56 H21        -3.4690   -9.4831    0.3169 H         1 <0>         0.0892
     57 H22        -4.0008  -10.6861    2.3780 H         1 <0>         0.0534
     58 H23        -4.5982   -9.0151    2.5157 H         1 <0>         0.0497
     59 H24        -5.6578  -11.2007    4.1125 H         1 <0>         0.0496
     60 H25        -6.4127   -9.5895    4.0639 H         1 <0>         0.0591
     61 H26        -8.0822  -11.2301    4.7764 H         1 <0>         0.0551
     62 H27        -8.4988  -10.6502    3.1459 H         1 <0>         0.0580
     63 H28        -8.5679  -13.0336    3.2874 H         1 <0>         0.3763
@<TRIPOS>BOND
     1    1    2 1
     2    1   37 1
     3    1   38 1
     4    1   39 1
     5    2    3 1
     6    2   40 1
     7    2   41 1
     8    3    4 1
     9    3   42 1
    10    3   43 1
    11    4    5 1
    12    5   10 ar
    13    5    6 ar
    14    6    7 ar
    15    6   44 1
    16    7    8 ar
    17    7   45 1
    18    8    9 ar
    19    8   11 1
    20    9   10 ar
    21    9   46 1
    22   10   47 1
    23   11   12 2
    24   11   13 1
    25   13   18 1
    26   13   14 2
    27   14   15 1
    28   14   36 1
    29   15   16 2
    30   15   17 am
    31   17   18 1
    32   17   30 1
    33   18   19 1
    34   18   20 1
    35   20   25 ar
    36   20   21 ar
    37   21   22 ar
    38   21   48 1
    39   22   23 ar
    40   22   49 1
    41   23   24 ar
    42   23   26 1
    43   24   25 ar
    44   24   50 1
    45   25   51 1
    46   26   27 2
    47   26   28 1
    48   28   29 1
    49   29   52 1
    50   29   53 1
    51   29   54 1
    52   30   31 1
    53   30   55 1
    54   30   56 1
    55   31   32 1
    56   31   57 1
    57   31   58 1
    58   32   33 1
    59   33   34 1
    60   33   59 1
    61   33   60 1
    62   34   35 1
    63   34   61 1
    64   34   62 1
    65   35   63 1
@<TRIPOS>MOLECULE
ZINC40094489
   64    66     0     0     0
SMALL
USER_CHARGES

@<TRIPOS>ATOM
      1 C1          0.3840   -0.0573    0.8084 C.3       1 <0>        -0.1455
      2 C2          0.5569   -1.5598    0.5768 C.3       1 <0>        -0.0936
      3 C3         -0.7975   -2.2570    0.7195 C.3       1 <0>        -0.1461
      4 C4          1.1079   -1.7989   -0.8304 C.3       1 <0>         0.0621
      5 O1          2.4227   -1.2477   -0.9271 O.3       1 <0>        -0.3054
      6 C5          3.0594   -1.3756   -2.1220 C.ar      1 <0>         0.0933
      7 C6          2.4300   -2.0125   -3.1795 C.ar      1 <0>        -0.1719
      8 C7          3.0784   -2.1413   -4.3936 C.ar      1 <0>        -0.0815
      9 C8          4.3551   -1.6362   -4.5558 C.ar      1 <0>        -0.0704
     10 C9          4.9889   -1.0001   -3.5048 C.ar      1 <0>        -0.1651
     11 C10         4.3422   -0.8622   -2.2871 C.ar      1 <0>         0.0933
     12 O2          4.9620   -0.2314   -1.2539 O.3       1 <0>        -0.3096
     13 C11         6.2340    0.3607   -1.5245 C.3       1 <0>         0.0279
     14 C12         5.0576   -1.7798   -5.8814 C.3       1 <0>         0.2684
     15 H1          5.9420   -1.1431   -5.9073 H         1 <0>         0.0640
     16 C13         5.4485   -3.2214   -6.1086 C.2       1 <0>        -0.5075
     17 C14         4.8094   -3.6272   -7.2306 C.2       1 <0>         0.2691
     18 C15         4.0042   -2.5075   -7.7626 C.2       1 <0>         0.5154
     19 O3          3.3150   -2.5575   -8.7619 O.2       1 <0>        -0.5173
     20 N1          4.1472   -1.4237   -6.9761 N.am      1 <0>        -0.6103
     21 C16         3.5083   -0.1208   -7.1767 C.3       1 <0>         0.1401
     22 C17         4.4101    0.7617   -8.0420 C.3       1 <0>         0.0437
     23 O4          4.5238    0.1914   -9.3473 O.3       1 <0>        -0.3571
     24 C18         5.3495    0.9423  -10.2397 C.3       1 <0>         0.0623
     25 C19         5.3987    0.2427  -11.5995 C.3       1 <0>         0.0786
     26 O5          4.0969    0.2545  -12.1887 O.3       1 <0>        -0.5636
     27 O6          4.8944   -4.8613   -7.7784 O.3       1 <0>        -0.6524
     28 C20         6.3468   -4.0258   -5.2746 C.2       1 <0>         0.5028
     29 O7          5.9210   -5.0044   -4.6901 O.2       1 <0>        -0.4715
     30 C21         7.7691   -3.6481   -5.1438 C.ar      1 <0>        -0.1442
     31 C22         8.2870   -2.5935   -5.9002 C.ar      1 <0>        -0.0385
     32 C23         9.6145   -2.2456   -5.7742 C.ar      1 <0>        -0.1700
     33 C24        10.4361   -2.9403   -4.8990 C.ar      1 <0>         0.1057
     34 C25         9.9274   -3.9879   -4.1458 C.ar      1 <0>        -0.1686
     35 C26         8.6000   -4.3404   -4.2591 C.ar      1 <0>        -0.0478
     36 F1         11.7369   -2.5955   -4.7801 F         1 <0>        -0.1439
     37 H2          1.3489    0.4394    0.7067 H         1 <0>         0.0639
     38 H3         -0.3116    0.3461    0.0725 H         1 <0>         0.0525
     39 H4         -0.0085    0.1130    1.8109 H         1 <0>         0.0534
     40 H5          1.2525   -1.9631    1.3127 H         1 <0>         0.0802
     41 H6         -1.4931   -1.8536   -0.0164 H         1 <0>         0.0573
     42 H7         -0.6743   -3.3273    0.5546 H         1 <0>         0.0580
     43 H8         -1.1900   -2.0866    1.7220 H         1 <0>         0.0621
     44 H9          1.1475   -2.8701   -1.0279 H         1 <0>         0.0602
     45 H10         0.4578   -1.3184   -1.5616 H         1 <0>         0.0591
     46 H11         1.4330   -2.4085   -3.0551 H         1 <0>         0.1295
     47 H12         2.5868   -2.6379   -5.2170 H         1 <0>         0.1232
     48 H13         5.9864   -0.6068   -3.6340 H         1 <0>         0.1310
     49 H14         6.9283   -0.4085   -1.8627 H         1 <0>         0.0537
     50 H15         6.1245    1.1181   -2.3007 H         1 <0>         0.0519
     51 H16         6.6196    0.8242   -0.6164 H         1 <0>         0.0948
     52 H17         2.5490   -0.2595   -7.6754 H         1 <0>         0.0861
     53 H18         3.3496    0.3586   -6.2107 H         1 <0>         0.0889
     54 H19         3.9776    1.7593   -8.1177 H         1 <0>         0.0527
     55 H20         5.3984    0.8277   -7.5870 H         1 <0>         0.0487
     56 H21         4.9365    1.9437  -10.3611 H         1 <0>         0.0498
     57 H22         6.3573    1.0121   -9.8304 H         1 <0>         0.0580
     58 H23         6.0977    0.7658  -12.2522 H         1 <0>         0.0549
     59 H24         5.7278   -0.7879  -11.4662 H         1 <0>         0.0570
     60 H25         4.0533   -0.1732  -13.0548 H         1 <0>         0.3765
     61 H26         7.6483   -2.0524   -6.5826 H         1 <0>         0.1439
     62 H27        10.0159   -1.4307   -6.3584 H         1 <0>         0.1344
     63 H28        10.5717   -4.5256   -3.4660 H         1 <0>         0.1342
     64 H29         8.2038   -5.1534   -3.6687 H         1 <0>         0.1393
@<TRIPOS>BOND
     1    1    2 1
     2    1   37 1
     3    1   38 1
     4    1   39 1
     5    2    3 1
     6    2    4 1
     7    2   40 1
     8    3   41 1
     9    3   42 1
    10    3   43 1
    11    4    5 1
    12    4   44 1
    13    4   45 1
    14    5    6 1
    15    6   11 ar
    16    6    7 ar
    17    7    8 ar
    18    7   46 1
    19    8    9 ar
    20    8   47 1
    21    9   10 ar
    22    9   14 1
    23   10   11 ar
    24   10   48 1
    25   11   12 1
    26   12   13 1
    27   13   49 1
    28   13   50 1
    29   13   51 1
    30   14   15 1
    31   14   20 1
    32   14   16 1
    33   16   17 2
    34   16   28 1
    35   17   18 1
    36   17   27 1
    37   18   19 2
    38   18   20 am
    39   20   21 1
    40   21   22 1
    41   21   52 1
    42   21   53 1
    43   22   23 1
    44   22   54 1
    45   22   55 1
    46   23   24 1
    47   24   25 1
    48   24   56 1
    49   24   57 1
    50   25   26 1
    51   25   58 1
    52   25   59 1
    53   26   60 1
    54   28   29 2
    55   28   30 1
    56   30   35 ar
    57   30   31 ar
    58   31   32 ar
    59   31   61 1
    60   32   33 ar
    61   32   62 1
    62   33   34 ar
    63   33   36 1
    64   34   35 ar
    65   34   63 1
    66   35   64 1
@<TRIPOS>MOLECULE
ZINC43509650
   69    71     0     0     0
SMALL
USER_CHARGES

@<TRIPOS>ATOM
      1 C1          2.8559    1.7358   -0.9331 C.3       1 <0>        -0.1227
      2 C2          2.5301    0.2738   -0.7669 C.2       1 <0>        -0.1730
      3 C3          2.5454   -0.5229   -1.8067 C.2       1 <0>        -0.1516
      4 C4          2.2195   -1.9849   -1.6405 C.3       1 <0>        -0.0822
      5 C5          1.0816   -2.3649   -2.5901 C.3       1 <0>        -0.1715
      6 C6          0.7558   -3.8269   -2.4239 C.2       1 <0>         0.2774
      7 O1          1.3703   -4.4958   -1.6281 O.2       1 <0>        -0.2721
      8 C7         -0.3368   -4.4541   -3.2508 C.3       1 <0>        -0.0947
      9 H1         -1.1686   -3.7551   -3.3393 H         1 <0>         0.0927
     10 C8         -0.8194   -5.7291   -2.5661 C.3       1 <0>        -0.0383
     11 H2         -1.8774   -5.6248   -2.3253 H         1 <0>         0.0695
     12 C9         -0.6298   -6.9550   -3.4580 C.3       1 <0>        -0.0541
     13 H3         -0.9797   -7.8454   -2.9358 H         1 <0>         0.0978
     14 C10         0.8610   -7.1075   -3.7963 C.3       1 <0>        -0.0575
     15 C11         1.3008   -5.8195   -4.4706 C.2       1 <0>         0.3907
     16 C12         0.2069   -4.7771   -4.6508 C.3       1 <0>        -0.1429
     17 C13        -0.9145   -5.4862   -5.4037 C.2       1 <0>         0.3607
     18 O2         -1.3646   -5.0634   -6.4415 O.2       1 <0>        -0.4346
     19 C14        -1.4344   -6.7666   -4.7531 C.3       1 <0>         0.0938
     20 C15        -1.1996   -7.9530   -5.6901 C.3       1 <0>        -0.1763
     21 O3         -2.8261   -6.6523   -4.4494 O.3       1 <0>        -0.5240
     22 C16         0.7152   -3.5300   -5.3769 C.3       1 <0>        -0.1330
     23 O4          2.4369   -5.6366   -4.8367 O.2       1 <0>        -0.4233
     24 C17         1.6547   -7.3230   -2.5335 C.2       1 <0>        -0.1732
     25 O5          2.3055   -6.4120   -2.0623 O.2       1 <0>        -0.2020
     26 C18         1.6419   -8.5801   -1.8999 C.2       1 <0>         0.0916
     27 C19         2.3330   -8.7659   -0.7464 C.2       1 <0>        -0.1028
     28 C20         2.8550  -10.0891   -0.4126 C.2       1 <0>        -0.0646
     29 C21         3.4701  -10.2891    0.7563 C.2       1 <0>        -0.2123
     30 C22         4.0085  -11.6538    1.1006 C.3       1 <0>        -0.1115
     31 C23        -0.0304   -5.9293   -1.2707 C.3       1 <0>        -0.2441
     32 C24        -0.3912   -7.2545   -0.6370 C.2       1 <0>         0.3746
     33 C25         0.7467   -7.9724   -0.5936 C.2       1 <0>        -0.4466
     34 C26         1.8042   -7.2201   -1.1450 C.2       1 <0>         0.2404
     35 O6          2.9525   -7.6106   -1.2404 O.2       1 <0>        -0.2983
     36 O7          1.3723   -6.0117   -1.5517 O.3       1 <0>         0.0180
     37 C27         0.8715   -9.3681   -0.0392 C.3       1 <0>        -0.0881
     38 O8         -1.6078   -7.6391   -0.2024 O.3       1 <0>        -0.6225
     39 C28        -0.3094   -4.7814   -0.2984 C.3       1 <0>        -0.1075
     40 H4          3.8657    1.8402   -1.3300 H         1 <0>         0.0611
     41 H5          2.1453    2.1902   -1.6235 H         1 <0>         0.0612
     42 H6          2.7923    2.2344    0.0341 H         1 <0>         0.0575
     43 H7          2.2840   -0.1170    0.2093 H         1 <0>         0.1073
     44 H8          2.7914   -0.1321   -2.7829 H         1 <0>         0.1053
     45 H9          3.1012   -2.5823   -1.8725 H         1 <0>         0.0791
     46 H10         1.9129   -2.1741   -0.6118 H         1 <0>         0.0719
     47 H11         0.2000   -1.7675   -2.3580 H         1 <0>         0.0848
     48 H12         1.3883   -2.1757   -3.6188 H         1 <0>         0.0967
     49 H13        -1.5189   -8.8724   -5.1993 H         1 <0>         0.0829
     50 H14        -1.7735   -7.8119   -6.6059 H         1 <0>         0.0672
     51 H15        -0.1390   -8.0201   -5.9326 H         1 <0>         0.0710
     52 H16        -3.3895   -6.5312   -5.2259 H         1 <0>         0.3761
     53 H17         1.5195   -3.0754   -4.7986 H         1 <0>         0.0806
     54 H18         1.0892   -3.8101   -6.3617 H         1 <0>         0.0661
     55 H19        -0.1010   -2.8161   -5.4878 H         1 <0>         0.0693
     56 H20         1.0040   -7.9500   -4.4729 H         1 <0>         0.0989
     57 H21         1.0822   -9.3967   -2.3316 H         1 <0>         0.0902
     58 H22         2.4969   -7.9356   -0.0755 H         1 <0>         0.2266
     59 H23         2.7436  -10.9055   -1.1108 H         1 <0>         0.1094
     60 H24         3.5815   -9.4727    1.4545 H         1 <0>         0.1085
     61 H25         3.1920  -12.3759    1.1058 H         1 <0>         0.0586
     62 H26         4.7503  -11.9496    0.3587 H         1 <0>         0.0564
     63 H27         4.4728  -11.6232    2.0863 H         1 <0>         0.0549
     64 H28         1.1356  -10.0559   -0.8425 H         1 <0>         0.0663
     65 H29         1.6481   -9.3872    0.7254 H         1 <0>         0.0752
     66 H30        -0.0788   -9.6708    0.4005 H         1 <0>         0.0421
     67 H31        -1.3534   -4.8149    0.0132 H         1 <0>         0.0117
     68 H32         0.3340   -4.8812    0.5758 H         1 <0>         0.0398
     69 H33        -0.1077   -3.8305   -0.7915 H         1 <0>         0.0414
@<TRIPOS>BOND
     1    1    2 1
     2    1   40 1
     3    1   41 1
     4    1   42 1
     5    2    3 2
     6    2   43 1
     7    3    4 1
     8    3   44 1
     9    4    5 1
    10    4   45 1
    11    4   46 1
    12    5    6 1
    13    5   47 1
    14    5   48 1
    15    6    7 2
    16    6    8 1
    17    8    9 1
    18    8   16 1
    19    8   10 1
    20   10   11 1
    21   10   12 1
    22   10   31 1
    23   12   13 1
    24   12   19 1
    25   12   14 1
    26   14   24 1
    27   14   56 1
    28   14   15 1
    29   15   16 1
    30   15   23 2
    31   16   17 1
    32   16   22 1
    33   17   18 2
    34   17   19 1
    35   19   20 1
    36   19   21 1
    37   20   49 1
    38   20   50 1
    39   20   51 1
    40   21   52 1
    41   22   53 1
    42   22   54 1
    43   22   55 1
    44   24   25 2
    45   24   26 1
    46   26   27 2
    47   26   57 1
    48   27   28 1
    49   27   58 1
    50   28   29 2
    51   28   59 1
    52   29   30 1
    53   29   60 1
    54   30   61 1
    55   30   62 1
    56   30   63 1
    57   31   36 1
    58   31   32 1
    59   31   39 1
    60   32   33 2
    61   32   38 1
    62   33   34 1
    63   33   37 1
    64   34   35 2
    65   34   36 1
    66   37   64 1
    67   37   65 1
    68   37   66 1
    69   39   67 1
    70   39   68 1
    71   39   69 1
@<TRIPOS>MOLECULE
ZINC09492446
   49    52     0     0     0
SMALL
USER_CHARGES
1-(1,1-dioxothiolan-3-yl)-N-[5-[(4-fluorophenyl)methylsulfanyl]-1,3,4-thiadiazol-2-yl]-6-oxo-4,5-dihydropyridazine-3-carboxamide
@<TRIPOS>ATOM
      1 C1          0.0021   -0.0041    0.0020 C.ar      1 <0>        -0.0667
      2 C2         -0.0167    1.3778    0.0096 C.ar      1 <0>        -0.1532
      3 C3          1.1732    2.0858    0.0021 C.ar      1 <0>         0.1122
      4 C4          2.3806    1.4083   -0.0131 C.ar      1 <0>        -0.1532
      5 C5          2.3969    0.0264   -0.0202 C.ar      1 <0>        -0.0666
      6 C6          1.2082   -0.6795   -0.0127 C.ar      1 <0>        -0.0977
      7 C7          1.2273   -2.1863   -0.0199 C.3       1 <0>        -0.0709
      8 S1          1.2187   -2.7829   -1.7330 S.3       1 <0>         0.0637
      9 C8          1.2425   -4.5375   -1.5735 C.2       1 <0>         0.0137
     10 N1          1.2620   -5.2938   -0.4856 N.2       1 <0>        -0.2586
     11 N2          1.2775   -6.5534   -0.5493 N.2       1 <0>        -0.2653
     12 C9          1.2752   -7.1971   -1.7055 C.2       1 <0>         0.2730
     13 S2          1.2394   -5.8082   -2.8350 S.3       1 <0>         0.0620
     14 N3          1.2896   -8.5631   -1.9683 N.am      1 <0>        -0.5968
     15 C10         1.3098   -9.4452   -0.9495 C.2       1 <0>         0.5788
     16 O1          1.3155   -9.0467    0.2003 O.2       1 <0>        -0.4405
     17 C11         1.3250  -10.8853   -1.2265 C.2       1 <0>         0.0918
     18 N4          1.3189  -11.3005   -2.4555 N.2       1 <0>        -0.2047
     19 N5          1.3311  -12.6660   -2.7576 N.am      1 <0>        -0.4411
     20 C12         0.9670  -13.5730   -1.8300 C.2       1 <0>         0.5001
     21 O2          0.9748  -14.7553   -2.0990 O.2       1 <0>        -0.4981
     22 C13         0.5502  -13.1124   -0.4562 C.3       1 <0>        -0.1408
     23 C14         1.3538  -11.8616   -0.0809 C.3       1 <0>        -0.1076
     24 C15         1.7419  -13.1130   -4.0909 C.3       1 <0>         0.1534
     25 H1          1.7019  -14.2010   -4.1429 H         1 <0>         0.1388
     26 C16         3.1731  -12.6318   -4.3819 C.3       1 <0>        -0.1374
     27 C17         3.4961  -12.8149   -5.8844 C.3       1 <0>        -0.5746
     28 S3          1.8400  -12.6809   -6.6729 S.o2      1 <0>         2.3755
     29 O3          1.5281  -13.9143   -7.3058 O.2       1 <0>        -0.9252
     30 O4          1.7802  -11.4754   -7.4228 O.2       1 <0>        -0.9263
     31 C18         0.7974  -12.5007   -5.1644 C.3       1 <0>        -0.5936
     32 F1          1.1561    3.4366    0.0090 F         1 <0>        -0.1353
     33 H2         -0.9259   -0.5565    0.0079 H         1 <0>         0.1390
     34 H3         -0.9591    1.9052    0.0169 H         1 <0>         0.1411
     35 H4          3.3093    1.9595   -0.0187 H         1 <0>         0.1411
     36 H5          3.3385   -0.5023   -0.0313 H         1 <0>         0.1390
     37 H6          2.1267   -2.5407    0.4837 H         1 <0>         0.1120
     38 H7          0.3470   -2.5634    0.5005 H         1 <0>         0.1119
     39 H8          1.2852   -8.8808   -2.8848 H         1 <0>         0.4374
     40 H9         -0.5144  -12.8782   -0.4581 H         1 <0>         0.1148
     41 H10         0.7487  -13.9022    0.2684 H         1 <0>         0.1279
     42 H11         2.3858  -12.1395    0.1333 H         1 <0>         0.1102
     43 H12         0.9124  -11.3985    0.8017 H         1 <0>         0.1229
     44 H13         3.2610  -11.5777   -4.1187 H         1 <0>         0.0970
     45 H14         3.8781  -13.2123   -3.7868 H         1 <0>         0.1023
     46 H15         3.9337  -13.7961   -6.0689 H         1 <0>         0.1457
     47 H16         4.1572  -12.0232   -6.2369 H         1 <0>         0.1492
     48 H17        -0.1248  -13.0751   -5.2517 H         1 <0>         0.1482
     49 H18         0.5878  -11.4522   -4.9530 H         1 <0>         0.1513
@<TRIPOS>BOND
     1    1    6 ar
     2    1    2 ar
     3    1   33 1
     4    2    3 ar
     5    2   34 1
     6    3    4 ar
     7    3   32 1
     8    4    5 ar
     9    4   35 1
    10    5    6 ar
    11    5   36 1
    12    6    7 1
    13    7    8 1
    14    7   37 1
    15    7   38 1
    16    8    9 1
    17    9   13 1
    18    9   10 2
    19   10   11 1
    20   11   12 2
    21   12   13 1
    22   12   14 1
    23   14   15 am
    24   14   39 1
    25   15   16 2
    26   15   17 1
    27   17   23 1
    28   17   18 2
    29   18   19 1
    30   19   20 am
    31   19   24 1
    32   20   21 2
    33   20   22 1
    34   22   23 1
    35   22   40 1
    36   22   41 1
    37   23   42 1
    38   23   43 1
    39   24   25 1
    40   24   31 1
    41   24   26 1
    42   26   27 1
    43   26   44 1
    44   26   45 1
    45   27   28 1
    46   27   46 1
    47   27   47 1
    48   28   29 2
    49   28   30 2
    50   28   31 1
    51   31   48 1
    52   31   49 1
@<TRIPOS>MOLECULE
ZINC15865869
   69    71     0     0     0
SMALL
USER_CHARGES
N-tert-butyl-2-[3,5-dimethyl-4-[[4-(piperidine-1-carbonyl)-1-piperidyl]sulfonyl]pyrazol-1-yl]acetamide
@<TRIPOS>ATOM
      1 C1          0.3038   -7.2320    4.6666 C.3       1 <0>        -0.1090
      2 C2          1.2729   -7.2497    3.5127 C.2       1 <0>         0.1696
      3 C3          2.4897   -6.5626    3.4530 C.2       1 <0>        -0.8165
      4 C4          3.0661   -6.8392    2.2604 C.2       1 <0>         0.2235
      5 N1          2.2405   -7.6673    1.5868 N.pl3     1 <0>        -0.3445
      6 N2          1.1197   -7.9075    2.3921 N.2       1 <0>        -0.2811
      7 C5          2.4751   -8.2182    0.2498 C.3       1 <0>         0.1039
      8 C6          3.2098   -9.5287    0.3683 C.2       1 <0>         0.4983
      9 O1          3.5080   -9.9600    1.4619 O.2       1 <0>        -0.5084
     10 N3          3.5354  -10.2214   -0.7411 N.am      1 <0>        -0.7199
     11 C7          4.2496  -11.4953   -0.6259 C.3       1 <0>         0.1697
     12 C8          3.4093  -12.4791    0.1908 C.3       1 <0>        -0.1657
     13 C9          4.4947  -12.0706   -2.0223 C.3       1 <0>        -0.1561
     14 C10         5.5908  -11.2666    0.0741 C.3       1 <0>        -0.1653
     15 C11         4.3922   -6.3160    1.7718 C.3       1 <0>        -0.1181
     16 S1          3.1576   -5.5259    4.7115 S.o2      1 <0>         2.7216
     17 O2          4.5648   -5.5035    4.5150 O.2       1 <0>        -0.9590
     18 O3          2.5659   -5.9400    5.9353 O.2       1 <0>        -0.9530
     19 N4          2.6144   -3.9890    4.4193 N.pl3     1 <0>        -0.9986
     20 C12         1.3542   -3.5158    5.0082 C.3       1 <0>         0.1211
     21 C13         0.4583   -2.9773    3.8884 C.3       1 <0>        -0.1176
     22 C14         1.2215   -1.9122    3.0976 C.3       1 <0>        -0.1045
     23 C15         2.4646   -2.5393    2.4622 C.3       1 <0>        -0.1247
     24 C16         3.3833   -3.0729    3.5659 C.3       1 <0>         0.1225
     25 C17         0.3314   -1.3558    2.0163 C.2       1 <0>         0.5199
     26 O4         -0.6149   -2.0014    1.6180 O.2       1 <0>        -0.5367
     27 N5          0.5870   -0.1409    1.4919 N.am      1 <0>        -0.6129
     28 C18        -0.2124    0.3743    0.3719 C.3       1 <0>         0.1093
     29 C19        -0.7614    1.7532    0.7513 C.3       1 <0>        -0.1352
     30 C20         0.3972    2.6625    1.1671 C.3       1 <0>        -0.1213
     31 C21         1.0999    2.0691    2.3904 C.3       1 <0>        -0.1372
     32 C22         1.6700    0.6938    2.0296 C.3       1 <0>         0.1027
     33 H1         -0.4077   -6.4175    4.5310 H         1 <0>         0.0856
     34 H2         -0.2324   -8.1802    4.7053 H         1 <0>         0.0826
     35 H3          0.8505   -7.0855    5.5981 H         1 <0>         0.1111
     36 H4          1.5197   -8.3811   -0.2489 H         1 <0>         0.1310
     37 H5          3.0738   -7.5174   -0.3320 H         1 <0>         0.1260
     38 H6          3.2969   -9.8764   -1.6157 H         1 <0>         0.4013
     39 H7          2.4538  -12.6419   -0.3079 H         1 <0>         0.0550
     40 H8          3.9407  -13.4269    0.2764 H         1 <0>         0.0659
     41 H9          3.2347  -12.0692    1.1856 H         1 <0>         0.0771
     42 H10         5.0934  -11.3698   -2.6041 H         1 <0>         0.0634
     43 H11         5.0261  -13.0185   -1.9366 H         1 <0>         0.0766
     44 H12         3.5392  -12.2335   -2.5209 H         1 <0>         0.0633
     45 H13         5.4162  -10.8567    1.0689 H         1 <0>         0.0770
     46 H14         6.1221  -12.2145    0.1597 H         1 <0>         0.0663
     47 H15         6.1894  -10.5658   -0.5078 H         1 <0>         0.0554
     48 H16         5.1856   -7.0008    2.0711 H         1 <0>         0.1041
     49 H17         4.3727   -6.2352    0.6850 H         1 <0>         0.0794
     50 H18         4.5773   -5.3334    2.2059 H         1 <0>         0.0996
     51 H19         1.5615   -2.7209    5.7246 H         1 <0>         0.0784
     52 H20         0.8530   -4.3426    5.5115 H         1 <0>         0.0974
     53 H21        -0.4392   -2.5355    4.3212 H         1 <0>         0.0806
     54 H22         0.1779   -3.7935    3.2225 H         1 <0>         0.0801
     55 H23         1.5233   -1.1083    3.7689 H         1 <0>         0.0982
     56 H24         2.1652   -3.3596    1.8098 H         1 <0>         0.0743
     57 H25         2.9950   -1.7858    1.8800 H         1 <0>         0.0807
     58 H26         3.7559   -2.2418    4.1647 H         1 <0>         0.0810
     59 H27         4.2208   -3.6074    3.1176 H         1 <0>         0.0937
     60 H28        -1.0400   -0.3058    0.1704 H         1 <0>         0.0917
     61 H29         0.4132    0.4618   -0.5164 H         1 <0>         0.0666
     62 H30        -1.2758    2.1883   -0.1056 H         1 <0>         0.0754
     63 H31        -1.4597    1.6508    1.5819 H         1 <0>         0.0667
     64 H32         1.1077    2.7446    0.3445 H         1 <0>         0.0649
     65 H33         0.0119    3.6517    1.4140 H         1 <0>         0.0669
     66 H34         0.3841    1.9637    3.2056 H         1 <0>         0.0678
     67 H35         1.9102    2.7290    2.7001 H         1 <0>         0.0777
     68 H36         2.0844    0.2245    2.9219 H         1 <0>         0.0892
     69 H37         2.4511    0.8078    1.2779 H         1 <0>         0.0712
@<TRIPOS>BOND
     1    1    2 1
     2    1   33 1
     3    1   34 1
     4    1   35 1
     5    2    6 2
     6    2    3 1
     7    3    4 2
     8    3   16 1
     9    4    5 1
    10    4   15 1
    11    5    6 1
    12    5    7 1
    13    7    8 1
    14    7   36 1
    15    7   37 1
    16    8    9 2
    17    8   10 am
    18   10   11 1
    19   10   38 1
    20   11   12 1
    21   11   13 1
    22   11   14 1
    23   12   39 1
    24   12   40 1
    25   12   41 1
    26   13   42 1
    27   13   43 1
    28   13   44 1
    29   14   45 1
    30   14   46 1
    31   14   47 1
    32   15   48 1
    33   15   49 1
    34   15   50 1
    35   16   17 2
    36   16   18 2
    37   16   19 1
    38   19   24 1
    39   19   20 1
    40   20   21 1
    41   20   51 1
    42   20   52 1
    43   21   22 1
    44   21   53 1
    45   21   54 1
    46   22   23 1
    47   22   25 1
    48   22   55 1
    49   23   24 1
    50   23   56 1
    51   23   57 1
    52   24   58 1
    53   24   59 1
    54   25   26 2
    55   25   27 am
    56   27   32 1
    57   27   28 1
    58   28   29 1
    59   28   60 1
    60   28   61 1
    61   29   30 1
    62   29   62 1
    63   29   63 1
    64   30   31 1
    65   30   64 1
    66   30   65 1
    67   31   32 1
    68   31   66 1
    69   31   67 1
    70   32   68 1
    71   32   69 1
@<TRIPOS>MOLECULE
ZINC32738644
   59    62     0     0     0
SMALL
USER_CHARGES
(3S)-4-(3,4-dimethoxyphenyl)sulfonyl-3-(3,5-dimethyl-1-phenyl-pyrazol-4-yl)piperazin-2-one
@<TRIPOS>ATOM
      1 C1          0.4011    3.8979   -2.2600 C.3       1 <0>        -0.0901
      2 C2          0.1741    3.1216   -0.9884 C.2       1 <0>         0.1118
      3 C3         -0.8677    3.3268   -0.0772 C.2       1 <0>        -0.2554
      4 C4         -0.7272    2.4289    0.9254 C.2       1 <0>         0.1277
      5 N1          0.3723    1.6870    0.6621 N.pl3     1 <0>        -0.3220
      6 N2          0.9175    2.1393   -0.5464 N.2       1 <0>        -0.2864
      7 C5          0.8740    0.6456    1.4550 C.ar      1 <0>         0.1528
      8 C6          0.7880    0.7213    2.8387 C.ar      1 <0>        -0.1331
      9 C7          1.2785   -0.3088    3.6171 C.ar      1 <0>        -0.0987
     10 C8          1.8648   -1.4097    3.0201 C.ar      1 <0>        -0.1202
     11 C9          1.9567   -1.4856    1.6424 C.ar      1 <0>        -0.0999
     12 C10         1.4632   -0.4611    0.8585 C.ar      1 <0>        -0.1096
     13 C11        -1.6313    2.2845    2.1224 C.3       1 <0>        -0.1229
     14 C12        -1.9579    4.3605   -0.1952 C.3       1 <0>         0.2363
     15 H1         -2.9034    3.8754   -0.4793 H         1 <0>         0.1260
     16 C13        -2.1125    5.0817    1.1159 C.2       1 <0>         0.5182
     17 O1         -2.6296    4.4937    2.0421 O.2       1 <0>        -0.5326
     18 N3         -1.7072    6.3380    1.3067 N.am      1 <0>        -0.7205
     19 C14        -1.1542    7.1953    0.2672 C.3       1 <0>         0.0992
     20 C15        -0.6004    6.3591   -0.8881 C.3       1 <0>         0.0927
     21 N4         -1.6010    5.3361   -1.2360 N.pl3     1 <0>        -0.9965
     22 S1         -2.2956    5.2861   -2.7385 S.o2      1 <0>         2.6952
     23 O2         -1.3917    5.9308   -3.6254 O.2       1 <0>        -0.9428
     24 O3         -2.7362    3.9500   -2.9380 O.2       1 <0>        -0.9402
     25 C16        -3.7427    6.2896   -2.6770 C.ar      1 <0>        -0.6838
     26 C17        -3.6624    7.6353   -2.9837 C.ar      1 <0>        -0.0106
     27 C18        -4.7950    8.4266   -2.9379 C.ar      1 <0>        -0.1955
     28 C19        -6.0141    7.8715   -2.5835 C.ar      1 <0>         0.1611
     29 C20        -6.0949    6.5171   -2.2744 C.ar      1 <0>         0.0857
     30 C21        -4.9568    5.7284   -2.3279 C.ar      1 <0>        -0.0784
     31 O4         -7.2891    5.9676   -1.9261 O.3       1 <0>        -0.3016
     32 C22        -7.2967    4.5714   -1.6219 C.3       1 <0>         0.0150
     33 O5         -7.1292    8.6486   -2.5375 O.3       1 <0>        -0.2975
     34 C23        -6.9711   10.0301   -2.8669 C.3       1 <0>         0.0169
     35 H2         -0.3836    4.6610   -2.3687 H         1 <0>         0.0571
     36 H3          0.3672    3.2120   -3.1193 H         1 <0>         0.0854
     37 H4          1.3854    4.3873   -2.2201 H         1 <0>         0.0895
     38 H5          0.3345    1.5831    3.3057 H         1 <0>         0.1361
     39 H6          1.2085   -0.2522    4.6933 H         1 <0>         0.1340
     40 H7          2.2513   -2.2121    3.6310 H         1 <0>         0.1304
     41 H8          2.4151   -2.3467    1.1789 H         1 <0>         0.1332
     42 H9          1.5359   -0.5206   -0.2174 H         1 <0>         0.1337
     43 H10        -1.2635    1.4698    2.7635 H         1 <0>         0.0703
     44 H11        -2.6523    2.0531    1.7849 H         1 <0>         0.0899
     45 H12        -1.6379    3.2252    2.6925 H         1 <0>         0.1255
     46 H13        -1.8138    6.7175    2.3336 H         1 <0>         0.4258
     47 H14        -1.9428    7.8573   -0.1201 H         1 <0>         0.0724
     48 H15        -0.3394    7.8028    0.6879 H         1 <0>         0.0942
     49 H16        -0.4090    7.0106   -1.7535 H         1 <0>         0.1191
     50 H17         0.3387    5.8789   -0.5759 H         1 <0>         0.0944
     51 H18        -2.7127    8.0692   -3.2600 H         1 <0>         0.1468
     52 H19        -4.7297    9.4774   -3.1786 H         1 <0>         0.1483
     53 H20        -5.0176    4.6760   -2.0928 H         1 <0>         0.1507
     54 H21        -8.3180    4.2592   -1.3582 H         1 <0>         0.1093
     55 H22        -6.6234    4.3772   -0.7739 H         1 <0>         0.0595
     56 H23        -6.9545    4.0031   -2.4994 H         1 <0>         0.0616
     57 H24        -7.9433   10.5389   -2.7903 H         1 <0>         0.1089
     58 H25        -6.5899   10.1206   -3.8947 H         1 <0>         0.0622
     59 H26        -6.2584   10.4941   -2.1692 H         1 <0>         0.0615
@<TRIPOS>BOND
     1    1    2 1
     2    1   35 1
     3    1   36 1
     4    1   37 1
     5    2    6 2
     6    2    3 1
     7    3    4 2
     8    3   14 1
     9    4    5 1
    10    4   13 1
    11    5    6 1
    12    5    7 1
    13    7   12 ar
    14    7    8 ar
    15    8    9 ar
    16    8   38 1
    17    9   10 ar
    18    9   39 1
    19   10   11 ar
    20   10   40 1
    21   11   12 ar
    22   11   41 1
    23   12   42 1
    24   13   43 1
    25   13   44 1
    26   13   45 1
    27   14   15 1
    28   14   21 1
    29   14   16 1
    30   16   17 2
    31   16   18 am
    32   18   19 1
    33   18   46 1
    34   19   20 1
    35   19   47 1
    36   19   48 1
    37   20   21 1
    38   20   49 1
    39   20   50 1
    40   21   22 1
    41   22   23 2
    42   22   24 2
    43   22   25 1
    44   25   30 ar
    45   25   26 ar
    46   26   27 ar
    47   26   51 1
    48   27   28 ar
    49   27   52 1
    50   28   29 ar
    51   28   33 1
    52   29   30 ar
    53   29   31 1
    54   30   53 1
    55   31   32 1
    56   32   54 1
    57   32   55 1
    58   32   56 1
    59   33   34 1
    60   34   57 1
    61   34   58 1
    62   34   59 1
@<TRIPOS>MOLECULE
ZINC38492986
   67    70     0     0     0
SMALL
USER_CHARGES

@<TRIPOS>ATOM
      1 C1          7.9601    0.1752   -0.1016 C.3       1 <0>        -0.1527
      2 C2          6.8556   -0.8530   -0.3546 C.3       1 <0>         0.0537
      3 O1          7.4286   -2.0434   -0.8991 O.3       1 <0>        -0.3165
      4 C3          6.5768   -3.0643   -1.1836 C.ar      1 <0>         0.1090
      5 C4          5.2174   -2.9190   -0.9481 C.ar      1 <0>        -0.1797
      6 C5          4.3517   -3.9554   -1.2367 C.ar      1 <0>        -0.1130
      7 C6          4.8421   -5.1431   -1.7628 C.ar      1 <0>         0.1259
      8 C7          6.2028   -5.2878   -1.9982 C.ar      1 <0>        -0.1144
      9 C8          7.0667   -4.2486   -1.7144 C.ar      1 <0>        -0.1243
     10 N1          3.9644   -6.1952   -2.0555 N.am      1 <0>        -0.5547
     11 C9          4.3597   -7.4432   -2.7189 C.3       1 <0>         0.1115
     12 C10         3.2138   -8.4404   -2.4377 C.3       1 <0>        -0.1206
     13 H1          3.4188   -9.0279   -1.5428 H         1 <0>         0.1264
     14 C11         2.0160   -7.4888   -2.2126 C.3       1 <0>        -0.1440
     15 C12         2.6532   -6.1937   -1.7596 C.2       1 <0>         0.5202
     16 O2          2.0658   -5.2850   -1.2114 O.2       1 <0>        -0.5063
     17 C13         2.9756   -9.3369   -3.6253 C.2       1 <0>         0.5333
     18 O3          3.6505   -9.2111   -4.6253 O.2       1 <0>        -0.5004
     19 N2          2.0125  -10.2785   -3.5764 N.am      1 <0>        -0.6575
     20 C14         1.8565  -11.1775   -4.6406 C.2       1 <0>         0.0232
     21 C15         1.9633  -12.5208   -4.4284 C.2       1 <0>         0.0017
     22 C16         1.8001  -13.4035   -5.5238 C.2       1 <0>        -0.2288
     23 C17         1.5377  -12.8915   -6.7770 C.2       1 <0>         0.1764
     24 N3          1.4358  -11.5616   -6.9667 N.am      1 <0>        -0.4859
     25 C18         1.5810  -10.7008   -5.9428 C.2       1 <0>         0.5189
     26 O4          1.4789   -9.5016   -6.1402 O.2       1 <0>        -0.5124
     27 C19         1.1564  -11.0445   -8.3086 C.3       1 <0>         0.0550
     28 C20         1.9104  -14.8606   -5.3256 C.2       1 <0>         0.5744
     29 O5          1.0025  -15.4728   -4.7967 O.2       1 <0>        -0.5217
     30 N4          3.0176  -15.5139   -5.7306 N.am      1 <0>        -0.5969
     31 C21         3.0492  -16.9555   -5.6251 C.3       1 <0>         0.1160
     32 C22         3.6003  -17.3628   -4.2363 C.3       1 <0>        -0.1338
     33 C23         5.0412  -17.0785   -4.1551 C.3       1 <0>        -0.1204
     34 C24         5.3986  -15.6009   -4.2846 C.3       1 <0>        -0.1159
     35 C25         5.5046  -15.2382   -5.7453 C.3       1 <0>        -0.1319
     36 C26         4.1454  -14.7285   -6.2690 C.3       1 <0>         0.1059
     37 H2          8.6838   -0.2349    0.6028 H         1 <0>         0.0665
     38 H3          8.4603    0.4096   -1.0412 H         1 <0>         0.0665
     39 H4          7.5230    1.0832    0.3137 H         1 <0>         0.0788
     40 H5          6.3554   -1.0874    0.5850 H         1 <0>         0.0620
     41 H6          6.1319   -0.4429   -1.0590 H         1 <0>         0.0620
     42 H7          4.8361   -1.9953   -0.5386 H         1 <0>         0.1322
     43 H8          3.2935   -3.8423   -1.0530 H         1 <0>         0.1577
     44 H9          6.5850   -6.2115   -2.4071 H         1 <0>         0.1337
     45 H10         8.1245   -4.3594   -1.9017 H         1 <0>         0.1363
     46 H11         4.4655   -7.2829   -3.7918 H         1 <0>         0.1030
     47 H12         5.2943   -7.8143   -2.2983 H         1 <0>         0.0949
     48 H13         1.4649   -7.3427   -3.1416 H         1 <0>         0.1179
     49 H14         1.3590   -7.8797   -1.4356 H         1 <0>         0.1184
     50 H15         1.4274  -10.3342   -2.8047 H         1 <0>         0.4135
     51 H16         2.1696  -12.9052   -3.4404 H         1 <0>         0.1430
     52 H17         1.4132  -13.5626   -7.6140 H         1 <0>         0.1711
     53 H18         0.0785  -10.9664   -8.4507 H         1 <0>         0.0825
     54 H19         1.6099  -10.0597   -8.4202 H         1 <0>         0.1007
     55 H20         1.5728  -11.7228   -9.0533 H         1 <0>         0.0913
     56 H21         2.0405  -17.3504   -5.7454 H         1 <0>         0.0851
     57 H22         3.6932  -17.3623   -6.4047 H         1 <0>         0.0784
     58 H23         3.0776  -16.8013   -3.4619 H         1 <0>         0.0666
     59 H24         3.4335  -18.4286   -4.0804 H         1 <0>         0.0742
     60 H25         5.4121  -17.4415   -3.1965 H         1 <0>         0.0586
     61 H26         5.5477  -17.6279   -4.9486 H         1 <0>         0.0599
     62 H27         4.6224  -14.9966   -3.8152 H         1 <0>         0.0630
     63 H28         6.3532  -15.4132   -3.7931 H         1 <0>         0.0648
     64 H29         6.2557  -14.4583   -5.8705 H         1 <0>         0.0779
     65 H30         5.8016  -16.1183   -6.3157 H         1 <0>         0.0697
     66 H31         4.1342  -14.7932   -7.3570 H         1 <0>         0.0671
     67 H32         4.0218  -13.6856   -5.9769 H         1 <0>         0.0833
@<TRIPOS>BOND
     1    1    2 1
     2    1   37 1
     3    1   38 1
     4    1   39 1
     5    2    3 1
     6    2   40 1
     7    2   41 1
     8    3    4 1
     9    4    9 ar
    10    4    5 ar
    11    5    6 ar
    12    5   42 1
    13    6    7 ar
    14    6   43 1
    15    7    8 ar
    16    7   10 1
    17    8    9 ar
    18    8   44 1
    19    9   45 1
    20   10   15 am
    21   10   11 1
    22   11   12 1
    23   11   46 1
    24   11   47 1
    25   12   13 1
    26   12   14 1
    27   12   17 1
    28   14   15 1
    29   14   48 1
    30   14   49 1
    31   15   16 2
    32   17   18 2
    33   17   19 am
    34   19   20 1
    35   19   50 1
    36   20   25 1
    37   20   21 2
    38   21   22 1
    39   21   51 1
    40   22   23 2
    41   22   28 1
    42   23   24 1
    43   23   52 1
    44   24   25 am
    45   24   27 1
    46   25   26 2
    47   27   53 1
    48   27   54 1
    49   27   55 1
    50   28   29 2
    51   28   30 am
    52   30   36 1
    53   30   31 1
    54   31   32 1
    55   31   56 1
    56   31   57 1
    57   32   33 1
    58   32   58 1
    59   32   59 1
    60   33   34 1
    61   33   60 1
    62   33   61 1
    63   34   35 1
    64   34   62 1
    65   34   63 1
    66   35   36 1
    67   35   64 1
    68   35   65 1
    69   36   66 1
    70   36   67 1
@<TRIPOS>MOLECULE
ZINC56938845
   64    67     0     0     0
SMALL
USER_CHARGES

@<TRIPOS>ATOM
      1 C1         -0.0408    1.5234    0.0007 C.3       1 <0>        -0.0688
      2 C2         -0.0053    0.0168   -0.0016 C.2       1 <0>         0.0770
      3 C3          0.0088   -0.8020   -1.1398 C.2       1 <0>         0.0316
      4 C4          0.0412   -2.0932   -0.7235 C.2       1 <0>         0.0754
      5 N1          0.0473   -2.0856    0.6362 N.pl3     1 <0>        -0.3680
      6 N2          0.0234   -0.7502    1.0584 N.2       1 <0>        -0.2879
      7 C5          0.0791   -3.2645    1.5052 C.3       1 <0>         0.1677
      8 H1          0.0851   -4.1695    0.8978 H         1 <0>         0.1227
      9 C6         -1.1529   -3.2648    2.4254 C.3       1 <0>        -0.1365
     10 C7         -0.9706   -4.3114    3.5510 C.3       1 <0>        -0.5745
     11 S1          0.8572   -4.3853    3.7416 S.o2      1 <0>         2.3769
     12 O1          1.2144   -3.8210    4.9959 O.2       1 <0>        -0.9251
     13 O2          1.3040   -5.6930    3.4106 O.2       1 <0>        -0.9278
     14 C8          1.3511   -3.2238    2.3996 C.3       1 <0>        -0.5933
     15 C9          0.0658   -3.3136   -1.6073 C.3       1 <0>        -0.0883
     16 N3         -0.0082   -0.3625   -2.4773 N.pl3     1 <0>        -0.6431
     17 C10        -1.2793   -0.1507   -3.1863 C.3       1 <0>         0.1529
     18 C11        -1.2241   -0.9032   -4.5200 C.3       1 <0>         0.0417
     19 N4         -0.0239   -0.4927   -5.2608 N.3       1 <0>        -0.5167
     20 C12         1.2006   -0.8575   -4.5358 C.3       1 <0>         0.0366
     21 C13         1.2446   -0.0972   -3.2008 C.3       1 <0>         0.1566
     22 C14        -0.0220   -1.0599   -6.6159 C.3       1 <0>         0.0378
     23 C15         1.0830   -0.4287   -7.4232 C.2       1 <0>         0.5142
     24 O3          1.7985    0.4109   -6.9193 O.2       1 <0>        -0.4922
     25 N5          1.2761   -0.7973   -8.7051 N.am      1 <0>        -0.6771
     26 C16         2.2344   -0.1475   -9.4799 C.ar      1 <0>         0.1806
     27 C17         2.0025    0.0653  -10.8360 C.ar      1 <0>        -0.1593
     28 C18         2.9424    0.7046  -11.6022 C.ar      1 <0>        -0.0396
     29 C19         4.1374    1.1440  -11.0187 C.ar      1 <0>        -0.1908
     30 C20         4.3663    0.9278   -9.6540 C.ar      1 <0>        -0.0529
     31 C21         3.4184    0.2923   -8.8945 C.ar      1 <0>        -0.1359
     32 C22         5.1474    1.8290  -11.8355 C.2       1 <0>         0.3962
     33 O4          4.9101    2.0974  -12.9943 O.2       1 <0>        -0.4618
     34 C23         6.4789    2.1983  -11.2339 C.3       1 <0>        -0.2035
     35 H2          0.9780    1.9108   -0.0086 H         1 <0>         0.0754
     36 H3         -0.5716    1.8756   -0.8838 H         1 <0>         0.0779
     37 H4         -0.5545    1.8733    0.8961 H         1 <0>         0.0703
     38 H5         -1.2748   -2.2759    2.8672 H         1 <0>         0.1040
     39 H6         -2.0401   -3.5114    1.8422 H         1 <0>         0.1017
     40 H7         -1.4420   -3.9729    4.4736 H         1 <0>         0.1494
     41 H8         -1.3668   -5.2800    3.2460 H         1 <0>         0.1444
     42 H9          2.2238   -3.5926    1.8607 H         1 <0>         0.1468
     43 H10         1.5262   -2.2214    2.7903 H         1 <0>         0.1540
     44 H11         1.0992   -3.5838   -1.8248 H         1 <0>         0.0787
     45 H12        -0.4266   -4.1415   -1.0974 H         1 <0>         0.0679
     46 H13        -0.4572   -3.0980   -2.5390 H         1 <0>         0.0845
     47 H14        -2.1029   -0.5336   -2.5836 H         1 <0>         0.0713
     48 H15        -1.4220    0.9139   -3.3721 H         1 <0>         0.0590
     49 H16        -1.1858   -1.9760   -4.3311 H         1 <0>         0.0365
     50 H17        -2.1120   -0.6684   -5.1071 H         1 <0>         0.0813
     51 H18         1.2051   -1.9309   -4.3466 H         1 <0>         0.0306
     52 H19         2.0712   -0.5895   -5.1344 H         1 <0>         0.0943
     53 H20         1.3399    0.9723   -3.3879 H         1 <0>         0.0605
     54 H21         2.0905   -0.4448   -2.6077 H         1 <0>         0.0684
     55 H22         0.1390   -2.1364   -6.5590 H         1 <0>         0.0671
     56 H23        -0.9809   -0.8608   -7.0945 H         1 <0>         0.1096
     57 H24         0.7479   -1.5149   -9.0882 H         1 <0>         0.4135
     58 H25         1.0809   -0.2742  -11.2852 H         1 <0>         0.1327
     59 H26         2.7618    0.8689  -12.6543 H         1 <0>         0.1376
     60 H27         5.2864    1.2650   -9.1999 H         1 <0>         0.1384
     61 H28         3.5923    0.1288   -7.8412 H         1 <0>         0.1452
     62 H29         6.4755    1.9604  -10.1701 H         1 <0>         0.0836
     63 H30         7.2701    1.6359  -11.7295 H         1 <0>         0.0962
     64 H31         6.6540    3.2659  -11.3668 H         1 <0>         0.0942
@<TRIPOS>BOND
     1    1    2 1
     2    1   35 1
     3    1   36 1
     4    1   37 1
     5    2    6 2
     6    2    3 1
     7    3    4 2
     8    3   16 1
     9    4    5 1
    10    4   15 1
    11    5    6 1
    12    5    7 1
    13    7    8 1
    14    7   14 1
    15    7    9 1
    16    9   10 1
    17    9   38 1
    18    9   39 1
    19   10   11 1
    20   10   40 1
    21   10   41 1
    22   11   12 2
    23   11   13 2
    24   11   14 1
    25   14   42 1
    26   14   43 1
    27   15   44 1
    28   15   45 1
    29   15   46 1
    30   16   21 1
    31   16   17 1
    32   17   18 1
    33   17   47 1
    34   17   48 1
    35   18   19 1
    36   18   49 1
    37   18   50 1
    38   19   20 1
    39   19   22 1
    40   20   21 1
    41   20   51 1
    42   20   52 1
    43   21   53 1
    44   21   54 1
    45   22   23 1
    46   22   55 1
    47   22   56 1
    48   23   24 2
    49   23   25 am
    50   25   26 1
    51   25   57 1
    52   26   31 ar
    53   26   27 ar
    54   27   28 ar
    55   27   58 1
    56   28   29 ar
    57   28   59 1
    58   29   30 ar
    59   29   32 1
    60   30   31 ar
    61   30   60 1
    62   31   61 1
    63   32   33 2
    64   32   34 1
    65   34   62 1
    66   34   63 1
    67   34   64 1
@<TRIPOS>MOLECULE
ZINC05440706
   46    48     0     0     0
SMALL
USER_CHARGES
3-(acetoxymethyl)-8-oxo-7-[2-(4-pyridylamino)acetyl]amino-5-thia-1-azabicyclo[4.2.0]oct-2-ene-2-carboxylic acid
@<TRIPOS>ATOM
      1 C1         -2.1396   -4.3803    0.2220 C.3       1 <0>        -0.1452
      2 C2         -2.2595   -2.8781    0.2145 C.2       1 <0>         0.4531
      3 O1         -3.3505   -2.3592    0.1957 O.2       1 <0>        -0.5014
      4 O2         -1.1542   -2.1166    0.2288 O.3       1 <0>        -0.3864
      5 C3         -1.3407   -0.6818    0.1066 C.3       1 <0>         0.1367
      6 C4          0.0035   -0.0061    0.0192 C.2       1 <0>        -0.1629
      7 C5         -0.0168    1.3180    0.0089 C.2       1 <0>         0.1016
      8 N1          1.1829    2.0461   -0.0161 N.am      1 <0>        -0.5564
      9 C6          2.5232    1.5333   -0.4501 C.3       1 <0>         0.1287
     10 H1          2.7145    1.5011   -1.5227 H         1 <0>         0.1482
     11 C7          3.0866    2.7454    0.2842 C.3       1 <0>         0.1230
     12 H2          3.7264    3.3741   -0.3350 H         1 <0>         0.1516
     13 C8          1.6534    3.2405    0.3807 C.2       1 <0>         0.5325
     14 O3          1.1391    4.2941    0.6914 O.2       1 <0>        -0.4305
     15 N2          3.6861    2.4215    1.5812 N.am      1 <0>        -0.6852
     16 C9          4.6350    3.2232    2.1039 C.2       1 <0>         0.5145
     17 O4          4.9927    4.2127    1.5007 O.2       1 <0>        -0.5225
     18 C10         5.2516    2.8901    3.4380 C.3       1 <0>         0.0774
     19 N3          6.2481    3.9071    3.7830 N.pl3     1 <0>        -0.6617
     20 C11         6.9546    3.8118    4.9782 C.ar      1 <0>         0.3277
     21 C12         6.7244    2.7589    5.8635 C.ar      1 <0>        -0.2130
     22 C13         7.4496    2.6977    7.0348 C.ar      1 <0>         0.1765
     23 C14         8.5857    4.6390    6.5180 C.ar      1 <0>         0.1706
     24 C15         7.9073    4.7698    5.3246 C.ar      1 <0>        -0.2020
     25 S1          2.7287   -0.0645    0.4063 S.3       1 <0>        -0.2507
     26 C16         1.1859   -0.9171   -0.0452 C.3       1 <0>        -0.0102
     27 C17        -1.3068    2.0312    0.0177 C.2       1 <0>         0.4817
     28 O5         -1.3309    3.2420    0.1161 O.co2     1 <0>        -0.5937
     29 H3         -1.6922   -4.7045    1.1616 H         1 <0>         0.0947
     30 H4         -3.1297   -4.8244    0.1187 H         1 <0>         0.0969
     31 H5         -1.5102   -4.6987   -0.6090 H         1 <0>         0.0939
     32 H6         -1.8783   -0.3097    0.9788 H         1 <0>         0.1019
     33 H7         -1.9154   -0.4654   -0.7939 H         1 <0>         0.1078
     34 H8          3.4000    1.6302    2.0636 H         1 <0>         0.4194
     35 H9          4.4747    2.8688    4.2022 H         1 <0>         0.1221
     36 H10         5.7332    1.9139    3.3821 H         1 <0>         0.1231
     37 H11         6.4154    4.6469    3.1784 H         1 <0>         0.4338
     38 H12         5.9913    2.0000    5.6330 H         1 <0>         0.1804
     39 H13         7.2814    1.8834    7.7240 H         1 <0>         0.1926
     40 H14         9.3254    5.3759    6.7943 H         1 <0>         0.1921
     41 H15         8.1110    5.6022    4.6673 H         1 <0>         0.1810
     42 H16         1.0285   -1.7510    0.6388 H         1 <0>         0.1320
     43 H17         1.2793   -1.3054   -1.0594 H         1 <0>         0.1018
     44 N4          8.3841    3.6190    7.3961 N.ar      1 <0>        -0.5331
     45 H18         8.9053    3.5487    8.2779 H         1 <0>         0.4720
     46 O6         -2.4595    1.3402   -0.0834 O.co2     1 <0>        -0.7142
@<TRIPOS>BOND
     1    1    2 1
     2    1   29 1
     3    1   30 1
     4    1   31 1
     5    2    3 2
     6    2    4 1
     7    4    5 1
     8    5    6 1
     9    5   32 1
    10    5   33 1
    11    6   26 1
    12    6    7 2
    13    7    8 1
    14    7   27 1
    15    8   13 am
    16    8    9 1
    17    9   10 1
    18    9   11 1
    19    9   25 1
    20   11   12 1
    21   11   13 1
    22   11   15 1
    23   13   14 2
    24   15   16 am
    25   15   34 1
    26   16   17 2
    27   16   18 1
    28   18   19 1
    29   18   35 1
    30   18   36 1
    31   19   20 1
    32   19   37 1
    33   20   24 ar
    34   20   21 ar
    35   21   22 ar
    36   21   38 1
    37   22   39 1
    38   22   44 ar
    39   23   24 ar
    40   23   40 1
    41   23   44 ar
    42   24   41 1
    43   25   26 1
    44   26   42 1
    45   26   43 1
    46   27   28 2
    47   27   46 1
    48   44   45 1
@<TRIPOS>MOLECULE
ZINC20076861
   46    48     0     0     0
SMALL
USER_CHARGES
2-[[amino-(4-amino-1,2,5-oxadiazol-3-yl)methylene]amino]oxy-N-(1,5-dimethyl-3-oxo-2-phenyl-pyrazol-4-yl)acetamide
@<TRIPOS>ATOM
      1 C1         -0.5988    1.0777   -0.0812 C.3       1 <0>        -0.1001
      2 C2         -0.8467    1.5419    1.3309 C.2       1 <0>         0.1793
      3 C3         -0.9524    0.7434    2.4167 C.2       1 <0>        -0.0764
      4 C4         -1.1900    1.6106    3.5712 C.2       1 <0>         0.5428
      5 O1         -1.3392    1.2552    4.7264 O.2       1 <0>        -0.5073
      6 N1         -1.2132    2.8789    3.1117 N.am      1 <0>        -0.3683
      7 N2         -0.9966    2.8438    1.7294 N.pl3     1 <0>        -0.3944
      8 C5         -0.9424    4.0131    0.8484 C.3       1 <0>         0.0930
      9 C6         -1.4127    4.0282    3.8827 C.ar      1 <0>         0.1476
     10 C7         -0.6910    4.2139    5.0548 C.ar      1 <0>        -0.1019
     11 C8         -0.8857    5.3534    5.8106 C.ar      1 <0>        -0.0985
     12 C9         -1.8072    6.3027    5.4082 C.ar      1 <0>        -0.1167
     13 C10        -2.5318    6.1179    4.2450 C.ar      1 <0>        -0.1034
     14 C11        -2.3372    4.9839    3.4812 C.ar      1 <0>        -0.1309
     15 N3         -0.8517   -0.6620    2.4336 N.am      1 <0>        -0.6461
     16 C12         0.0388   -1.2640    3.2466 C.2       1 <0>         0.5171
     17 O2          0.6877   -0.6036    4.0305 O.2       1 <0>        -0.4992
     18 C13         0.2285   -2.7576    3.1818 C.3       1 <0>         0.0671
     19 O3          1.2185   -3.1538    4.1332 O.3       1 <0>        -0.2124
     20 N4          1.4734   -4.5465    4.1531 N.2       1 <0>        -0.4339
     21 C14         2.3540   -5.0345    4.9758 C.2       1 <0>         0.4811
     22 C15         2.6206   -6.4912    4.9967 C.2       1 <0>        -0.0108
     23 C16         1.9295   -7.5709    4.2545 C.2       1 <0>         0.3293
     24 N5          2.5735   -8.6448    4.6482 N.2       1 <0>        -0.4230
     25 O4          3.4351   -8.3319    5.4356 O.3       1 <0>         0.3346
     26 N6          3.5269   -7.1525    5.6834 N.2       1 <0>        -0.3132
     27 N7          0.8687   -7.4716    3.3637 N.pl3     1 <0>        -0.8270
     28 N8          3.0428   -4.1921    5.8326 N.pl3     1 <0>        -0.8770
     29 H1         -0.5213   -0.0194   -0.0982 H         1 <0>         0.0947
     30 H2          0.3387    1.5173   -0.4524 H         1 <0>         0.0881
     31 H3         -1.4329    1.3964   -0.7237 H         1 <0>         0.0874
     32 H4         -1.0954    4.9266    1.4417 H         1 <0>         0.0938
     33 H5         -1.7314    3.9346    0.0860 H         1 <0>         0.0843
     34 H6          0.0403    4.0560    0.3560 H         1 <0>         0.0839
     35 H7          0.0251    3.4705    5.3723 H         1 <0>         0.1320
     36 H8         -0.3211    5.5009    6.7194 H         1 <0>         0.1340
     37 H9         -1.9611    7.1906    6.0036 H         1 <0>         0.1307
     38 H10        -3.2505    6.8614    3.9333 H         1 <0>         0.1323
     39 H11        -2.9029    4.8405    2.5725 H         1 <0>         0.1267
     40 H12        -1.4999   -1.2677    1.7832 H         1 <0>         0.4280
     41 H13        -0.7232   -3.2584    3.4128 H         1 <0>         0.0866
     42 H14         0.5566   -3.0421    2.1711 H         1 <0>         0.0876
     43 H15         0.4624   -8.3770    2.8891 H         1 <0>         0.4387
     44 H16         0.4347   -6.4876    3.1327 H         1 <0>         0.4521
     45 H17         3.7878   -4.6050    6.5286 H         1 <0>         0.4249
     46 H18         2.8448   -3.1102    5.8171 H         1 <0>         0.4428
@<TRIPOS>BOND
     1    1    2 1
     2    1   29 1
     3    1   30 1
     4    1   31 1
     5    2    7 1
     6    2    3 2
     7    3    4 1
     8    3   15 1
     9    4    5 2
    10    4    6 am
    11    6    7 1
    12    6    9 1
    13    7    8 1
    14    8   32 1
    15    8   33 1
    16    8   34 1
    17    9   14 ar
    18    9   10 ar
    19   10   11 ar
    20   10   35 1
    21   11   12 ar
    22   11   36 1
    23   12   13 ar
    24   12   37 1
    25   13   14 ar
    26   13   38 1
    27   14   39 1
    28   15   16 am
    29   15   40 1
    30   16   17 2
    31   16   18 1
    32   18   19 1
    33   18   41 1
    34   18   42 1
    35   19   20 1
    36   20   21 2
    37   21   22 1
    38   21   28 1
    39   22   26 2
    40   22   23 1
    41   23   24 2
    42   23   27 1
    43   24   25 1
    44   25   26 1
    45   27   43 1
    46   27   44 1
    47   28   45 1
    48   28   46 1
@<TRIPOS>MOLECULE
ZINC34380622
   55    58     0     0     0
SMALL
USER_CHARGES

@<TRIPOS>ATOM
      1 C1         -0.0187    1.5258    0.0104 C.3       1 <0>        -0.2006
      2 C2          0.0021   -0.0041    0.0020 C.3       1 <0>         0.1122
      3 H1          0.5123   -0.3556   -0.8948 H         1 <0>         0.0980
      4 C3          0.7421   -0.5109    1.2415 C.3       1 <0>        -0.0420
      5 C4          0.9330   -2.0163    1.1606 C.3       1 <0>        -0.1011
      6 H2          1.0361   -2.4708    2.1459 H         1 <0>         0.1569
      7 C5          2.2707   -2.0371    0.3264 C.3       1 <0>        -0.1834
      8 H3          2.0205   -1.4966   -0.5865 H         1 <0>         0.1233
      9 C6          3.0999   -1.0622    1.0549 C.3       1 <0>         0.1493
     10 H4          3.9310   -0.7221    0.4370 H         1 <0>         0.1660
     11 N1          2.1195    0.0658    1.2927 N.4       1 <0>        -0.5041
     12 C7          3.6022   -1.6474    2.3496 C.ar      1 <0>        -0.1322
     13 C8          2.9080   -1.4242    3.5246 C.ar      1 <0>        -0.1553
     14 C9          3.3659   -1.9594    4.7137 C.ar      1 <0>        -0.0670
     15 C10         4.5205   -2.7201    4.7339 C.ar      1 <0>        -0.1755
     16 C11         5.2207   -2.9476    3.5604 C.ar      1 <0>         0.1116
     17 C12         4.7561   -2.4136    2.3618 C.ar      1 <0>         0.1131
     18 O1          5.4369   -2.6388    1.2062 O.3       1 <0>        -0.4683
     19 O2          6.3563   -3.6954    3.5785 O.3       1 <0>        -0.3009
     20 C13         6.7701   -4.2161    4.8433 C.3       1 <0>         0.0222
     21 C14         2.3126   -3.4056   -0.1252 C.2       1 <0>         0.5790
     22 O3          3.2942   -4.0964   -0.2949 O.2       1 <0>        -0.4061
     23 N2          0.9999   -3.7570   -0.3213 N.am      1 <0>        -0.5456
     24 C15         0.1149   -2.8590    0.2329 C.2       1 <0>         0.5467
     25 O4         -1.0740   -2.7631    0.0161 O.2       1 <0>        -0.3672
     26 C16         0.5992   -4.9134   -1.0053 C.ar      1 <0>         0.1356
     27 C17        -0.7511   -5.1937   -1.1661 C.ar      1 <0>        -0.0915
     28 C18        -1.1428   -6.3336   -1.8402 C.ar      1 <0>        -0.0879
     29 C19        -0.1916   -7.1955   -2.3549 C.ar      1 <0>        -0.0644
     30 C20         1.1538   -6.9192   -2.1960 C.ar      1 <0>        -0.0255
     31 C21         1.5516   -5.7774   -1.5279 C.ar      1 <0>        -0.0868
     32 N3          2.1688   -7.8445   -2.7479 N.pl3     1 <0>         0.0316
     33 O5          1.8212   -8.8412   -3.3373 O.2       1 <0>        -0.1498
     34 O6          3.3453   -7.6035   -2.6092 O.3       1 <0>        -0.1485
     35 C22        -0.0218   -0.1471    2.4886 C.2       1 <0>         0.5074
     36 O7         -1.1543   -0.5673    2.6542 O.co2     1 <0>        -0.6039
     37 O8          0.4927    0.5674    3.3320 O.co2     1 <0>        -0.6454
     38 O9         -1.3386   -0.4987    0.0122 O.3       1 <0>        -0.5188
     39 H5          1.0039    1.9031    0.0027 H         1 <0>         0.0571
     40 H6         -0.5459    1.8868   -0.8726 H         1 <0>         0.0907
     41 H7         -0.5289    1.8773    0.9072 H         1 <0>         0.0844
     42 H8          2.2212    0.7716    0.5788 H         1 <0>         0.4234
     43 H9          2.0062   -0.8300    3.5130 H         1 <0>         0.1560
     44 H10         2.8209   -1.7828    5.6292 H         1 <0>         0.1417
     45 H11         4.8766   -3.1366    5.6645 H         1 <0>         0.1416
     46 H12         6.1151   -1.9768    1.0139 H         1 <0>         0.3880
     47 H13         6.9509   -3.3923    5.5338 H         1 <0>         0.0594
     48 H14         5.9882   -4.8612    5.2441 H         1 <0>         0.0593
     49 H15         7.6869   -4.7920    4.7168 H         1 <0>         0.1071
     50 H16        -1.4944   -4.5212   -0.7641 H         1 <0>         0.1696
     51 H17        -2.1930   -6.5524   -1.9653 H         1 <0>         0.1598
     52 H18        -0.5002   -8.0863   -2.8817 H         1 <0>         0.1603
     53 H19         2.6026   -5.5596   -1.4083 H         1 <0>         0.1786
     54 H20        -1.8531   -0.2245    0.7836 H         1 <0>         0.4004
     55 H21         2.2866    0.4712    2.2015 H         1 <0>         0.4415
@<TRIPOS>BOND
     1    1    2 1
     2    1   39 1
     3    1   40 1
     4    1   41 1
     5    2    3 1
     6    2    4 1
     7    2   38 1
     8    4   11 1
     9    4    5 1
    10    4   35 1
    11    5    6 1
    12    5   24 1
    13    5    7 1
    14    7    8 1
    15    7    9 1
    16    7   21 1
    17    9   10 1
    18    9   11 1
    19    9   12 1
    20   11   42 1
    21   11   55 1
    22   12   17 ar
    23   12   13 ar
    24   13   14 ar
    25   13   43 1
    26   14   15 ar
    27   14   44 1
    28   15   16 ar
    29   15   45 1
    30   16   17 ar
    31   16   19 1
    32   17   18 1
    33   18   46 1
    34   19   20 1
    35   20   47 1
    36   20   48 1
    37   20   49 1
    38   21   22 2
    39   21   23 am
    40   23   24 am
    41   23   26 1
    42   24   25 2
    43   26   31 ar
    44   26   27 ar
    45   27   28 ar
    46   27   50 1
    47   28   29 ar
    48   28   51 1
    49   29   30 ar
    50   29   52 1
    51   30   31 ar
    52   30   32 1
    53   31   53 1
    54   32   33 2
    55   32   34 1
    56   35   36 2
    57   35   37 1
    58   38   54 1
@<TRIPOS>MOLECULE
ZINC13115890
   48    51     0     0     0
SMALL
USER_CHARGES

@<TRIPOS>ATOM
      1 C1         -4.2512    1.2117   -0.8900 C.3       1 <0>        -0.1189
      2 C2         -3.0880    2.2323   -0.8665 C.3       1 <0>        -0.5776
      3 S1         -1.6878    1.2651   -1.5641 S.o2      1 <0>         2.3705
      4 O1         -1.3579    1.7868   -2.8440 O.2       1 <0>        -0.9349
      5 O2         -0.6736    1.1420   -0.5765 O.2       1 <0>        -0.9328
      6 C3         -2.5194   -0.3652   -1.7775 C.3       1 <0>        -0.5823
      7 C4         -3.6970   -0.2178   -0.7720 C.3       1 <0>        -0.0981
      8 H1         -3.3385   -0.3911    0.2427 H         1 <0>         0.1081
      9 C5         -4.7953   -1.2275   -1.1110 C.3       1 <0>        -0.0072
     10 C6         -4.2831   -2.6251   -0.8753 C.2       1 <0>         0.1605
     11 N1         -4.3705   -3.2985    0.2341 N.2       1 <0>        -0.2688
     12 N2         -3.8291   -4.4553    0.0796 N.2       1 <0>        -0.2847
     13 C7         -3.3732   -4.5606   -1.1455 C.2       1 <0>         0.1290
     14 O3         -3.6565   -3.4059   -1.7773 O.3       1 <0>        -0.2019
     15 S2         -2.5502   -5.9562   -1.8381 S.3       1 <0>         0.1035
     16 C8         -2.5001   -7.1556   -0.4781 C.3       1 <0>        -0.1548
     17 C9         -1.8120   -8.4133   -0.9426 C.2       1 <0>         0.4640
     18 O4         -1.3957   -8.4928   -2.0808 O.2       1 <0>        -0.4920
     19 C10        -1.6513   -9.4987   -0.0550 C.2       1 <0>        -0.4412
     20 C11        -1.1362  -10.7289   -0.4992 C.2       1 <0>         0.5681
     21 N3         -0.9987  -11.7498    0.3975 N.am      1 <0>        -0.5155
     22 C12        -1.3451  -11.5987    1.6853 C.2       1 <0>         0.7136
     23 O5         -1.2034  -12.5379    2.4437 O.2       1 <0>        -0.5154
     24 N4         -1.8422  -10.4478    2.1669 N.am      1 <0>        -0.6587
     25 H2         -2.0790  -10.3842    3.1054 H         1 <0>         0.4371
     26 C13        -2.0111   -9.3772    1.3636 C.2       1 <0>         0.5776
     27 O6         -2.4569   -8.3340    1.8044 O.2       1 <0>        -0.4972
     28 C14        -0.4629  -13.0358   -0.0556 C.3       1 <0>         0.0282
     29 C15         0.6405  -13.6779    0.7877 C.3       1 <0>        -0.1340
     30 C16         0.9778  -13.0590   -0.5703 C.3       1 <0>        -0.1742
     31 N5         -0.7808  -10.8998   -1.8013 N.pl3     1 <0>        -0.7963
     32 H3         -4.9231    1.4094   -0.0547 H         1 <0>         0.1036
     33 H4         -4.8006    1.3106   -1.8262 H         1 <0>         0.0937
     34 H5         -3.3155    3.0922   -1.4964 H         1 <0>         0.1447
     35 H6         -2.8700    2.5465    0.1543 H         1 <0>         0.1415
     36 H7         -2.8847   -0.4909   -2.7967 H         1 <0>         0.1457
     37 H8         -1.8590   -1.1847   -1.4937 H         1 <0>         0.1380
     38 H9         -5.6632   -1.0469   -0.4768 H         1 <0>         0.1236
     39 H10        -5.0805   -1.1167   -2.1572 H         1 <0>         0.1081
     40 H11        -1.9509   -6.7299    0.3617 H         1 <0>         0.1413
     41 H12        -3.5169   -7.3923   -0.1647 H         1 <0>         0.1337
     42 H13        -1.1801  -13.7006   -0.5371 H         1 <0>         0.1439
     43 H14         0.9678  -13.1435    1.6796 H         1 <0>         0.1102
     44 H15         0.6493  -14.7654    0.8613 H         1 <0>         0.1183
     45 H16         1.2085  -13.7393   -1.3901 H         1 <0>         0.1208
     46 H17         1.5269  -12.1174   -0.5718 H         1 <0>         0.1055
     47 H18        -0.4967  -10.1382   -2.3306 H         1 <0>         0.4408
     48 H19        -0.8115  -11.7834   -2.2005 H         1 <0>         0.4129
@<TRIPOS>BOND
     1    1    7 1
     2    1    2 1
     3    1   32 1
     4    1   33 1
     5    2    3 1
     6    2   34 1
     7    2   35 1
     8    3    4 2
     9    3    5 2
    10    3    6 1
    11    6    7 1
    12    6   36 1
    13    6   37 1
    14    7    8 1
    15    7    9 1
    16    9   10 1
    17    9   38 1
    18    9   39 1
    19   10   14 1
    20   10   11 2
    21   11   12 1
    22   12   13 2
    23   13   14 1
    24   13   15 1
    25   15   16 1
    26   16   17 1
    27   16   40 1
    28   16   41 1
    29   17   18 2
    30   17   19 1
    31   19   26 1
    32   19   20 2
    33   20   21 1
    34   20   31 1
    35   21   22 am
    36   21   28 1
    37   22   23 2
    38   22   24 am
    39   24   25 1
    40   24   26 am
    41   26   27 2
    42   28   30 1
    43   28   29 1
    44   28   42 1
    45   29   30 1
    46   29   43 1
    47   29   44 1
    48   30   45 1
    49   30   46 1
    50   31   47 1
    51   31   48 1
@<TRIPOS>MOLECULE
ZINC33935738
   56    59     0     0     0
SMALL
USER_CHARGES

@<TRIPOS>ATOM
      1 C1         -0.0187    1.5258    0.0104 C.3       1 <0>        -0.2020
      2 C2          0.0021   -0.0041    0.0020 C.3       1 <0>         0.1186
      3 H1          0.5293   -0.3651    0.8851 H         1 <0>         0.0627
      4 C3          0.7182   -0.4975   -1.2568 C.3       1 <0>        -0.0004
      5 C4          0.8615   -2.0160   -1.2352 C.3       1 <0>        -0.1104
      6 H2          1.1558   -2.3943   -0.2563 H         1 <0>         0.1501
      7 C5          1.9964   -2.1211   -2.3233 C.3       1 <0>        -0.2009
      8 H3          1.5555   -1.6398   -3.1964 H         1 <0>         0.1458
      9 C6          2.9772   -1.1169   -1.8928 C.3       1 <0>         0.1494
     10 H4          3.5245   -0.7277   -2.7514 H         1 <0>         0.1705
     11 N1          2.1404   -0.0227   -1.2779 N.4       1 <0>        -0.4999
     12 C7          3.9308   -1.7106   -0.8883 C.ar      1 <0>        -0.0979
     13 C8          3.5444   -1.8421    0.4339 C.ar      1 <0>        -0.1411
     14 C9          4.4123   -2.3847    1.3586 C.ar      1 <0>        -0.0398
     15 C10         5.6832   -2.8016    0.9578 C.ar      1 <0>        -0.1014
     16 C11         6.0666   -2.6660   -0.3779 C.ar      1 <0>        -0.0456
     17 C12         5.1866   -2.1269   -1.2933 C.ar      1 <0>        -0.0854
     18 C13         6.6182   -3.3832    1.9427 C.2       1 <0>         0.5033
     19 O1          6.2820   -3.4996    3.1041 O.2       1 <0>        -0.4936
     20 O2          7.8436   -3.7844    1.5527 O.3       1 <0>        -0.3463
     21 C14         8.6955   -4.3375    2.5579 C.3       1 <0>         0.0334
     22 C15         1.9285   -3.5143   -2.6931 C.2       1 <0>         0.5885
     23 O3          2.8446   -4.2353   -3.0257 O.2       1 <0>        -0.4302
     24 N2          0.6005   -3.8453   -2.5861 N.am      1 <0>        -0.5454
     25 C16        -0.1407   -2.8960   -1.9132 C.2       1 <0>         0.5532
     26 O4         -1.3476   -2.7876   -1.8780 O.2       1 <0>        -0.3558
     27 C17         0.0525   -5.0307   -3.0962 C.ar      1 <0>         0.1373
     28 C18        -1.3042   -5.2885   -2.9516 C.ar      1 <0>        -0.0900
     29 C19        -1.8411   -6.4570   -3.4550 C.ar      1 <0>        -0.0878
     30 C20        -1.0289   -7.3701   -4.1027 C.ar      1 <0>        -0.0646
     31 C21         0.3224   -7.1164   -4.2477 C.ar      1 <0>        -0.0260
     32 C22         0.8641   -5.9464   -3.7517 C.ar      1 <0>        -0.0876
     33 N3          1.1883   -8.0963   -4.9411 N.pl3     1 <0>         0.0325
     34 O5          0.7139   -9.1180   -5.3802 O.2       1 <0>        -0.1500
     35 O6          2.3701   -7.8751   -5.0683 O.3       1 <0>        -0.1503
     36 C23        -0.0126   -0.0454   -2.4948 C.2       1 <0>         0.4974
     37 O7          0.5479    0.6719   -3.3058 O.co2     1 <0>        -0.6651
     38 O8         -1.1644   -0.3970   -2.6853 O.co2     1 <0>        -0.5775
     39 O9         -1.3386   -0.4987    0.0122 O.3       1 <0>        -0.5116
     40 H5          1.0039    1.9031    0.0027 H         1 <0>         0.0577
     41 H6         -0.5459    1.8868   -0.8726 H         1 <0>         0.0885
     42 H7         -0.5289    1.8773    0.9072 H         1 <0>         0.0806
     43 H8          2.2113    0.8215   -1.8259 H         1 <0>         0.4464
     44 H9          2.5612   -1.5189    0.7425 H         1 <0>         0.1297
     45 H10         4.1096   -2.4865    2.3903 H         1 <0>         0.1502
     46 H11         7.0483   -2.9861   -0.6944 H         1 <0>         0.1539
     47 H12         5.4803   -2.0254   -2.3277 H         1 <0>         0.1498
     48 H13         8.8648   -3.5962    3.3389 H         1 <0>         0.0646
     49 H14         8.2225   -5.2192    2.9903 H         1 <0>         0.0649
     50 H15         9.6492   -4.6190    2.1113 H         1 <0>         0.1087
     51 H16        -1.9388   -4.5760   -2.4457 H         1 <0>         0.1693
     52 H17        -2.8962   -6.6582   -3.3426 H         1 <0>         0.1599
     53 H18        -1.4511   -8.2832   -4.4955 H         1 <0>         0.1603
     54 H19         1.9188   -5.7465   -3.8696 H         1 <0>         0.1782
     55 H20        -1.8531   -0.2245    0.7836 H         1 <0>         0.3859
     56 H21         2.4572    0.1513   -0.3358 H         1 <0>         0.4153
@<TRIPOS>BOND
     1    1    2 1
     2    1   40 1
     3    1   41 1
     4    1   42 1
     5    2    3 1
     6    2    4 1
     7    2   39 1
     8    4   11 1
     9    4    5 1
    10    4   36 1
    11    5    6 1
    12    5   25 1
    13    5    7 1
    14    7    8 1
    15    7    9 1
    16    7   22 1
    17    9   10 1
    18    9   11 1
    19    9   12 1
    20   11   43 1
    21   11   56 1
    22   12   17 ar
    23   12   13 ar
    24   13   14 ar
    25   13   44 1
    26   14   15 ar
    27   14   45 1
    28   15   16 ar
    29   15   18 1
    30   16   17 ar
    31   16   46 1
    32   17   47 1
    33   18   19 2
    34   18   20 1
    35   20   21 1
    36   21   48 1
    37   21   49 1
    38   21   50 1
    39   22   23 2
    40   22   24 am
    41   24   25 am
    42   24   27 1
    43   25   26 2
    44   27   32 ar
    45   27   28 ar
    46   28   29 ar
    47   28   51 1
    48   29   30 ar
    49   29   52 1
    50   30   31 ar
    51   30   53 1
    52   31   32 ar
    53   31   33 1
    54   32   54 1
    55   33   34 2
    56   33   35 1
    57   36   37 2
    58   36   38 1
    59   39   55 1
@<TRIPOS>MOLECULE
ZINC06073870
   46    47     0     0     0
SMALL
USER_CHARGES
N-[5-[2-[2-[2-(5-acetylamino-1,3,4-thiadiazol-2-yl)ethoxy]ethoxy]ethyl]-1,3,4-thiadiazol-2-yl]acetamide
@<TRIPOS>ATOM
      1 C1          0.3695    5.6579    0.0282 C.3       1 <0>        -0.1650
      2 C2          0.1879    4.1619    0.0223 C.2       1 <0>         0.5049
      3 O1         -0.9278    3.6864    0.0308 O.2       1 <0>        -0.4695
      4 N1          1.2654    3.3524    0.0076 N.am      1 <0>        -0.6153
      5 C3          1.0978    1.9718    0.0022 C.2       1 <0>         0.2675
      6 N2         -0.0150    1.2581    0.0090 N.2       1 <0>        -0.2929
      7 N3          0.0021   -0.0041    0.0020 N.2       1 <0>        -0.2356
      8 C4          1.1450   -0.6605   -0.0124 C.2       1 <0>         0.0498
      9 S1          2.2948    0.7100   -0.0160 S.3       1 <0>         0.0232
     10 C5          1.4084   -2.1442   -0.0233 C.3       1 <0>        -0.0207
     11 C6          1.4834   -2.6383   -1.4694 C.3       1 <0>         0.0680
     12 O2          1.7331   -4.0453   -1.4797 O.3       1 <0>        -0.3757
     13 C7          1.8219   -4.6102   -2.7893 C.3       1 <0>         0.0653
     14 C8          2.0896   -6.1126   -2.6796 C.3       1 <0>         0.0653
     15 O3          0.9685   -6.7527   -2.0669 O.3       1 <0>        -0.3758
     16 C9          1.1169   -8.1660   -1.9163 C.3       1 <0>         0.0681
     17 C10        -0.1357   -8.7425   -1.2532 C.3       1 <0>        -0.0206
     18 C11         0.0208  -10.2329   -1.0944 C.2       1 <0>         0.0497
     19 N4          0.5251  -10.9290   -0.0951 N.2       1 <0>        -0.2357
     20 N5          0.5705  -12.1894   -0.1472 N.2       1 <0>        -0.2926
     21 C12         0.1204  -12.8619   -1.1927 C.2       1 <0>         0.2670
     22 S2         -0.4323  -11.5600   -2.2051 S.3       1 <0>         0.0235
     23 N6          0.0906  -14.2340   -1.4180 N.am      1 <0>        -0.6148
     24 C13         0.5716  -15.0805   -0.4862 C.2       1 <0>         0.5050
     25 O4          1.0304  -14.6458    0.5490 O.2       1 <0>        -0.4701
     26 C14         0.5392  -16.5673   -0.7303 C.3       1 <0>        -0.1630
     27 H1          0.4032    6.0239   -0.9980 H         1 <0>         0.1045
     28 H2         -0.4652    6.1232    0.5526 H         1 <0>         0.1057
     29 H3          1.3017    5.9088    0.5342 H         1 <0>         0.0878
     30 H4          2.1577    3.7327    0.0008 H         1 <0>         0.4299
     31 H5          2.3531   -2.3493    0.4801 H         1 <0>         0.1055
     32 H6          0.6006   -2.6604    0.4956 H         1 <0>         0.1183
     33 H7          0.5386   -2.4333   -1.9729 H         1 <0>         0.0610
     34 H8          2.2911   -2.1221   -1.9883 H         1 <0>         0.0535
     35 H9          0.8841   -4.4461   -3.3202 H         1 <0>         0.0622
     36 H10         2.6366   -4.1349   -3.3356 H         1 <0>         0.0677
     37 H11         2.2455   -6.5276   -3.6753 H         1 <0>         0.0677
     38 H12         2.9796   -6.2797   -2.0729 H         1 <0>         0.0622
     39 H13         1.2526   -8.6236   -2.8962 H         1 <0>         0.0536
     40 H14         1.9867   -8.3757   -1.2937 H         1 <0>         0.0610
     41 H15        -0.2714   -8.2849   -0.2733 H         1 <0>         0.1183
     42 H16        -1.0055   -8.5328   -1.8758 H         1 <0>         0.1055
     43 H17        -0.2764  -14.5816   -2.2459 H         1 <0>         0.4297
     44 H18         0.0952  -16.7657   -1.7058 H         1 <0>         0.0829
     45 H19         1.5552  -16.9615   -0.7066 H         1 <0>         0.1066
     46 H20        -0.0561  -17.0499    0.0448 H         1 <0>         0.1068
@<TRIPOS>BOND
     1    1    2 1
     2    1   27 1
     3    1   28 1
     4    1   29 1
     5    2    3 2
     6    2    4 am
     7    4    5 1
     8    4   30 1
     9    5    9 1
    10    5    6 2
    11    6    7 1
    12    7    8 2
    13    8    9 1
    14    8   10 1
    15   10   11 1
    16   10   31 1
    17   10   32 1
    18   11   12 1
    19   11   33 1
    20   11   34 1
    21   12   13 1
    22   13   14 1
    23   13   35 1
    24   13   36 1
    25   14   15 1
    26   14   37 1
    27   14   38 1
    28   15   16 1
    29   16   17 1
    30   16   39 1
    31   16   40 1
    32   17   18 1
    33   17   41 1
    34   17   42 1
    35   18   22 1
    36   18   19 2
    37   19   20 1
    38   20   21 2
    39   21   22 1
    40   21   23 1
    41   23   24 am
    42   23   43 1
    43   24   25 2
    44   24   26 1
    45   26   44 1
    46   26   45 1
    47   26   46 1
@<TRIPOS>MOLECULE
ZINC20904870
   48    50     0     0     0
SMALL
USER_CHARGES
2-[[4-amino-5-(methoxymethyl)-1,2,4-triazol-3-yl]sulfanyl]-1-[4-[(5-methyl-1,3,4-oxadiazol-2-yl)methyl]piperazin-1-yl]ethanone
@<TRIPOS>ATOM
      1 C1        -12.1929    4.3084   -5.5477 C.3       1 <0>        -0.0655
      2 C2        -11.6107    3.2538   -4.6423 C.2       1 <0>         0.1692
      3 N1        -10.9009    2.2261   -5.0126 N.2       1 <0>        -0.2881
      4 N2        -10.5672    1.5415   -3.9755 N.2       1 <0>        -0.2784
      5 C3        -11.0608    2.1040   -2.9091 C.2       1 <0>         0.1630
      6 O1        -11.7284    3.2009   -3.3048 O.3       1 <0>        -0.2169
      7 C4        -10.9059    1.6174   -1.4913 C.3       1 <0>         0.1477
      8 N3         -9.6994    2.2104   -0.8991 N.3       1 <0>        -0.5331
      9 C5         -9.3831    1.5829    0.3909 C.3       1 <0>         0.0402
     10 C6         -8.2336    2.3456    1.0580 C.3       1 <0>         0.1164
     11 N4         -7.1108    2.4204    0.1109 N.am      1 <0>        -0.6071
     12 C7         -7.3781    2.9172   -1.2474 C.3       1 <0>         0.1077
     13 C8         -8.5624    2.1265   -1.8255 C.3       1 <0>         0.0346
     14 C9         -5.8689    2.0487    0.4796 C.2       1 <0>         0.5389
     15 O2         -5.6655    1.6461    1.6054 O.2       1 <0>        -0.5237
     16 C10        -4.7329    2.1335   -0.5070 C.3       1 <0>        -0.1462
     17 S1         -3.2050    1.5686    0.2821 S.3       1 <0>         0.0773
     18 C11        -2.0772    1.7682   -1.0569 C.2       1 <0>         0.1183
     19 N5         -2.3631    2.2125   -2.2587 N.2       1 <0>        -0.2824
     20 N6         -1.3011    2.2284   -2.9824 N.2       1 <0>        -0.2496
     21 C12        -0.2818    1.8045   -2.2902 C.2       1 <0>         0.1565
     22 N7         -0.7405    1.4903   -1.0408 N.pl3     1 <0>        -0.2023
     23 N8         -0.0116    1.0048    0.0076 N.3       1 <0>        -0.7620
     24 C13         1.1389    1.6803   -2.7772 C.3       1 <0>         0.1530
     25 O3          1.3379    0.3818   -3.3397 O.3       1 <0>        -0.3844
     26 C14         2.6599    0.1590   -3.8343 C.3       1 <0>         0.0277
     27 H1        -11.9277    4.0829   -6.5912 H         1 <0>         0.1116
     28 H2        -11.7882    5.2932   -5.2712 H         1 <0>         0.0994
     29 H3        -13.2877    4.3190   -5.4416 H         1 <0>         0.0986
     30 H4        -11.7869    1.9144   -0.9034 H         1 <0>         0.1158
     31 H5        -10.8153    0.5211   -1.4877 H         1 <0>         0.0894
     32 H6        -10.2703    1.6128    1.0405 H         1 <0>         0.0992
     33 H7         -9.0842    0.5371    0.2265 H         1 <0>         0.0500
     34 H8         -8.5703    3.3591    1.3216 H         1 <0>         0.0830
     35 H9         -7.9212    1.8144    1.9692 H         1 <0>         0.1050
     36 H10        -7.6246    3.9883   -1.2041 H         1 <0>         0.0851
     37 H11        -6.4854    2.7714   -1.8734 H         1 <0>         0.0975
     38 H12        -8.2734    1.0733   -1.9569 H         1 <0>         0.0545
     39 H13        -8.8499    2.5519   -2.7983 H         1 <0>         0.0877
     40 H14        -4.9539    1.4966   -1.3762 H         1 <0>         0.1299
     41 H15        -4.6113    3.1756   -0.8375 H         1 <0>         0.1304
     42 H16         1.0668    0.8225   -0.1099 H         1 <0>         0.4488
     43 H17        -0.5031    0.7961    0.9693 H         1 <0>         0.4503
     44 H18         1.3320    2.4454   -3.5436 H         1 <0>         0.0940
     45 H19         1.8297    1.8241   -1.9333 H         1 <0>         0.0690
     46 H20         2.7300   -0.8577   -4.2482 H         1 <0>         0.0939
     47 H21         3.3825    0.2710   -3.0125 H         1 <0>         0.0457
     48 H22         2.8848    0.8923   -4.6228 H         1 <0>         0.0499
@<TRIPOS>BOND
     1    1    2 1
     2    1   27 1
     3    1   28 1
     4    1   29 1
     5    2    6 1
     6    2    3 2
     7    3    4 1
     8    4    5 2
     9    5    6 1
    10    5    7 1
    11    7    8 1
    12    7   30 1
    13    7   31 1
    14    8   13 1
    15    8    9 1
    16    9   10 1
    17    9   32 1
    18    9   33 1
    19   10   11 1
    20   10   34 1
    21   10   35 1
    22   11   12 1
    23   11   14 am
    24   12   13 1
    25   12   36 1
    26   12   37 1
    27   13   38 1
    28   13   39 1
    29   14   15 2
    30   14   16 1
    31   16   17 1
    32   16   40 1
    33   16   41 1
    34   17   18 1
    35   18   22 1
    36   18   19 2
    37   19   20 1
    38   20   21 2
    39   21   22 1
    40   21   24 1
    41   22   23 1
    42   23   42 1
    43   23   43 1
    44   24   25 1
    45   24   44 1
    46   24   45 1
    47   25   26 1
    48   26   46 1
    49   26   47 1
    50   26   48 1
@<TRIPOS>MOLECULE
ZINC34875438
   53    55     0     0     0
SMALL
USER_CHARGES

@<TRIPOS>ATOM
      1 C1         -0.2839    1.6611   -0.4451 C.3       1 <0>         0.0538
      2 N1         -0.3098    0.1968   -0.4823 N.am      1 <0>        -0.5448
      3 C2         -1.5045   -0.4545   -0.3650 C.2       1 <0>         0.5569
      4 C3         -1.5193   -1.8596   -0.4023 C.2       1 <0>        -0.4579
      5 C4         -0.2365   -2.5554   -0.5669 C.2       1 <0>         0.5796
      6 O1         -0.1897   -3.7710   -0.6064 O.2       1 <0>        -0.5069
      7 N2          0.8887   -1.8191   -0.6740 N.am      1 <0>        -0.5589
      8 C5          0.8403   -0.4776   -0.6364 C.2       1 <0>         0.7121
      9 O2          1.8767    0.1488   -0.7410 O.2       1 <0>        -0.5256
     10 C6          2.1798   -2.4916   -0.8389 C.3       1 <0>         0.0798
     11 C7         -2.7280   -2.5785   -0.2849 C.2       1 <0>         0.4427
     12 O3         -3.7873   -1.9850   -0.2558 O.2       1 <0>        -0.4933
     13 C8         -2.7044   -4.0827   -0.1956 C.3       1 <0>         0.0301
     14 N3         -4.0789   -4.5881   -0.0809 N.3       1 <0>        -0.5241
     15 C9         -4.8439   -4.3155   -1.3050 C.3       1 <0>         0.0420
     16 C10        -6.3123   -4.6916   -1.0801 C.3       1 <0>         0.1182
     17 N4         -6.3710   -6.0830   -0.6069 N.pl3     1 <0>        -0.9956
     18 C11        -5.5251   -6.4664    0.5335 C.3       1 <0>         0.1279
     19 C12        -4.0877   -6.0204    0.2451 C.3       1 <0>         0.0405
     20 S1         -7.3636   -7.1884   -1.3385 S.o2      1 <0>         2.6795
     21 O4         -7.7694   -8.1012   -0.3279 O.2       1 <0>        -0.9442
     22 O5         -8.2953   -6.4469   -2.1141 O.2       1 <0>        -0.9429
     23 C13        -6.3762   -8.1027   -2.4760 C.ar      1 <0>        -0.6419
     24 C14        -6.1253   -9.4409   -2.2535 C.ar      1 <0>        -0.0203
     25 C15        -5.3502  -10.1603   -3.1455 C.ar      1 <0>        -0.1094
     26 C16        -4.8211   -9.5438   -4.2658 C.ar      1 <0>        -0.0643
     27 C17        -5.0636   -8.2065   -4.5003 C.ar      1 <0>        -0.0890
     28 C18        -5.8507   -7.4759   -3.6074 C.ar      1 <0>         0.0738
     29 C19        -6.1120   -6.0886   -3.8478 C.1       1 <0>         0.2133
     30 N5         -6.3192   -4.9881   -4.0385 N.1       1 <0>        -0.3542
     31 N6         -2.6616    0.2453   -0.2141 N.pl3     1 <0>        -0.7897
     32 H1          0.7430    2.0093   -0.5566 H         1 <0>         0.1201
     33 H2         -0.8918    2.0561   -1.2590 H         1 <0>         0.0872
     34 H3         -0.6835    2.0075    0.5080 H         1 <0>         0.0867
     35 H4          2.3844   -2.6301   -1.9005 H         1 <0>         0.0749
     36 H5          2.9663   -1.8823   -0.3937 H         1 <0>         0.0926
     37 H6          2.1492   -3.4628   -0.3450 H         1 <0>         0.0967
     38 H7         -2.2402   -4.4927   -1.0925 H         1 <0>         0.0768
     39 H8         -2.1316   -4.3857    0.6809 H         1 <0>         0.1114
     40 H9         -4.7733   -3.2556   -1.5496 H         1 <0>         0.1026
     41 H10        -4.4387   -4.9065   -2.1263 H         1 <0>         0.0285
     42 H11        -6.7488   -4.0313   -0.3307 H         1 <0>         0.0887
     43 H12        -6.8614   -4.6001   -2.0173 H         1 <0>         0.0969
     44 H13        -5.8860   -5.9767    1.4380 H         1 <0>         0.0889
     45 H14        -5.5538   -7.5483    0.6633 H         1 <0>         0.0925
     46 H15        -3.6931   -6.5877   -0.5978 H         1 <0>         0.0404
     47 H16        -3.4687   -6.1970    1.1247 H         1 <0>         0.0922
     48 H17        -6.5345   -9.9280   -1.3808 H         1 <0>         0.1550
     49 H18        -5.1569  -11.2076   -2.9666 H         1 <0>         0.1442
     50 H19        -4.2166  -10.1112   -4.9580 H         1 <0>         0.1447
     51 H20        -4.6498   -7.7265   -5.3748 H         1 <0>         0.1435
     52 H21        -2.6350    1.2089   -0.1056 H         1 <0>         0.4068
     53 H22        -3.5130   -0.2193   -0.2150 H         1 <0>         0.4414
@<TRIPOS>BOND
     1    1    2 1
     2    1   32 1
     3    1   33 1
     4    1   34 1
     5    2    8 am
     6    2    3 1
     7    3    4 2
     8    3   31 1
     9    4    5 1
    10    4   11 1
    11    5    6 2
    12    5    7 am
    13    7    8 am
    14    7   10 1
    15    8    9 2
    16   10   35 1
    17   10   36 1
    18   10   37 1
    19   11   12 2
    20   11   13 1
    21   13   14 1
    22   13   38 1
    23   13   39 1
    24   14   19 1
    25   14   15 1
    26   15   16 1
    27   15   40 1
    28   15   41 1
    29   16   17 1
    30   16   42 1
    31   16   43 1
    32   17   18 1
    33   17   20 1
    34   18   19 1
    35   18   44 1
    36   18   45 1
    37   19   46 1
    38   19   47 1
    39   20   21 2
    40   20   22 2
    41   20   23 1
    42   23   28 ar
    43   23   24 ar
    44   24   25 ar
    45   24   48 1
    46   25   26 ar
    47   25   49 1
    48   26   27 ar
    49   26   50 1
    50   27   28 ar
    51   27   51 1
    52   28   29 1
    53   29   30 3
    54   31   52 1
    55   31   53 1
@<TRIPOS>MOLECULE
ZINC01569447
   55    58     0     0     0
SMALL
USER_CHARGES

@<TRIPOS>ATOM
      1 C1         -0.0189    1.5396    0.0105 C.3       1 <0>        -0.1557
      2 C2          1.4941    1.8898   -0.0021 C.3       1 <0>        -0.1546
      3 C3          2.0564    0.7339   -0.8673 C.3       1 <0>         0.0658
      4 H1          1.9340    0.9601   -1.9265 H         1 <0>         0.0794
      5 O1          1.2747   -0.4169   -0.5096 O.3       1 <0>        -0.3768
      6 C4          0.0021   -0.0041    0.0020 C.3       1 <0>         0.0497
      7 C5          3.5328    0.4974   -0.5429 C.3       1 <0>         0.1148
      8 N1          4.0764   -0.5148   -1.4518 N.pl3     1 <0>        -1.1486
      9 P1          5.5350   -0.2792   -2.1635 P.3       1 <0>         2.4258
     10 O2          5.8905   -1.4487   -2.9979 O.2       1 <0>        -1.0229
     11 O3          6.6757   -0.0241   -1.0344 O.3       1 <0>        -0.7298
     12 C6          7.8829    0.6659   -1.4061 C.3       1 <0>         0.1166
     13 C7          7.5126    1.9898   -2.0816 C.3       1 <0>        -0.2812
     14 C8          6.7472    1.7274   -3.3818 C.3       1 <0>         0.1135
     15 O4          5.5058    1.0691   -3.0703 O.3       1 <0>        -0.7286
     16 C9          6.6260    2.8034   -1.1344 C.3       1 <0>         0.1134
     17 O5          6.2164    4.0129   -1.7988 O.3       1 <0>        -0.7286
     18 P2          7.3504    4.9727   -2.4571 P.3       1 <0>         2.4259
     19 O6          7.9779    5.8128   -1.4127 O.2       1 <0>        -1.0234
     20 O7          8.4515    3.9695   -3.1069 O.3       1 <0>        -0.7302
     21 C10         8.7956    2.7618   -2.4035 C.3       1 <0>         0.1168
     22 N2          6.6858    5.9189   -3.6202 N.pl3     1 <0>        -1.1475
     23 C11         6.0394    5.3052   -4.7829 C.3       1 <0>         0.1028
     24 C12         4.7078    6.0075   -5.0559 C.3       1 <0>         0.0660
     25 H2          4.0942    5.9995   -4.1550 H         1 <0>         0.0884
     26 C13         3.9633    5.2910   -6.2029 C.3       1 <0>        -0.1536
     27 C14         3.3514    6.4803   -6.9923 C.3       1 <0>        -0.1560
     28 C15         4.4522    7.5546   -6.8056 C.3       1 <0>         0.0476
     29 O8          4.9464    7.3580   -5.4693 O.3       1 <0>        -0.3741
     30 H3         -0.4967    1.9161    0.9150 H         1 <0>         0.0860
     31 H4         -0.5138    1.9257   -0.8806 H         1 <0>         0.0785
     32 H5          1.6698    2.8560   -0.4751 H         1 <0>         0.0882
     33 H6          1.9113    1.8657    1.0047 H         1 <0>         0.0841
     34 H7         -0.1287   -0.3812    1.0163 H         1 <0>         0.0721
     35 H8         -0.7944   -0.3812   -0.6395 H         1 <0>         0.0708
     36 H9          4.0853    1.4291   -0.6644 H         1 <0>         0.0789
     37 H10         3.6276    0.1503    0.4860 H         1 <0>         0.0792
     38 H11         3.5736   -1.3244   -1.6327 H         1 <0>         0.4292
     39 H12         8.4783    0.8651   -0.5151 H         1 <0>         0.1290
     40 H13         8.4561    0.0505   -2.0995 H         1 <0>         0.0995
     41 H14         6.5426    2.6741   -3.8819 H         1 <0>         0.0961
     42 H15         7.3443    1.0903   -4.0342 H         1 <0>         0.1002
     43 H16         5.7460    2.2188   -0.8661 H         1 <0>         0.0961
     44 H17         7.1874    3.0539   -0.2343 H         1 <0>         0.1005
     45 H18         9.3118    3.0138   -1.4772 H         1 <0>         0.0995
     46 H19         9.4437    2.1477   -3.0286 H         1 <0>         0.1287
     47 H20         6.7206    6.8848   -3.5382 H         1 <0>         0.4290
     48 H21         6.6877    5.4046   -5.6535 H         1 <0>         0.0753
     49 H22         5.8589    4.2490   -4.5830 H         1 <0>         0.0761
     50 H23         4.6594    4.7292   -6.8258 H         1 <0>         0.0820
     51 H24         3.1804    4.6415   -5.8113 H         1 <0>         0.0874
     52 H25         3.2227    6.2285   -8.0449 H         1 <0>         0.0868
     53 H26         2.4090    6.8024   -6.5493 H         1 <0>         0.0805
     54 H27         5.2521    7.4067   -7.5311 H         1 <0>         0.0627
     55 H28         4.0275    8.5533   -6.9079 H         1 <0>         0.0885
@<TRIPOS>BOND
     1    1    6 1
     2    1    2 1
     3    1   30 1
     4    1   31 1
     5    2    3 1
     6    2   32 1
     7    2   33 1
     8    3    4 1
     9    3    5 1
    10    3    7 1
    11    5    6 1
    12    6   34 1
    13    6   35 1
    14    7    8 1
    15    7   36 1
    16    7   37 1
    17    8    9 1
    18    8   38 1
    19    9   15 1
    20    9   10 2
    21    9   11 1
    22   11   12 1
    23   12   13 1
    24   12   39 1
    25   12   40 1
    26   13   21 1
    27   13   14 1
    28   13   16 1
    29   14   15 1
    30   14   41 1
    31   14   42 1
    32   16   17 1
    33   16   43 1
    34   16   44 1
    35   17   18 1
    36   18   19 2
    37   18   20 1
    38   18   22 1
    39   20   21 1
    40   21   45 1
    41   21   46 1
    42   22   23 1
    43   22   47 1
    44   23   24 1
    45   23   48 1
    46   23   49 1
    47   24   25 1
    48   24   29 1
    49   24   26 1
    50   26   27 1
    51   26   50 1
    52   26   51 1
    53   27   28 1
    54   27   52 1
    55   27   53 1
    56   28   29 1
    57   28   54 1
    58   28   55 1
@<TRIPOS>MOLECULE
ZINC39937769
   53    56     0     0     0
SMALL
USER_CHARGES

@<TRIPOS>ATOM
      1 C1         -0.0187    1.5258    0.0104 C.3       1 <0>        -0.1400
      2 C2          0.0021   -0.0041    0.0020 C.3       1 <0>         0.1157
      3 H1          0.5120   -0.3575   -0.8942 H         1 <0>         0.0723
      4 C3         -1.4087   -0.5277    0.0193 C.2       1 <0>        -0.0696
      5 C4         -1.7172   -1.6739    0.6507 C.2       1 <0>        -0.2225
      6 C5         -3.1807   -1.9288    0.4819 C.3       1 <0>         0.3592
      7 H2         -3.3448   -2.6888   -0.2820 H         1 <0>         0.1226
      8 O1         -3.7516   -0.6696    0.0633 O.3       1 <0>        -0.3569
      9 C6         -2.6634    0.0227   -0.5862 C.3       1 <0>         0.1100
     10 H3         -2.7334    1.0939   -0.3973 H         1 <0>         0.1182
     11 C7         -2.6872   -0.2513   -2.0912 C.3       1 <0>        -0.1675
     12 N1         -3.7699   -2.3553    1.7536 N.am      1 <0>        -0.7054
     13 C8         -4.6966   -3.3337    1.7725 C.2       1 <0>         0.5475
     14 O2         -5.0428   -3.8611    0.7366 O.2       1 <0>        -0.5127
     15 C9         -5.3026   -3.7724    3.0806 C.3       1 <0>        -0.1194
     16 S1         -6.5066   -5.0947    2.7760 S.3       1 <0>        -0.2001
     17 C10        -7.1356   -5.5045    4.4274 C.3       1 <0>         0.3637
     18 H4         -7.8873   -6.2915    4.3680 H         1 <0>         0.1281
     19 N2         -7.6854   -4.3061    5.0889 N.pl3     1 <0>        -0.6568
     20 N3         -6.9097   -4.1130    6.2381 N.2       1 <0>        -0.0033
     21 N4         -6.0298   -4.9602    6.3630 N.2       1 <0>         0.0207
     22 N5         -6.0325   -5.9025    5.3223 N.pl3     1 <0>        -0.5464
     23 C11        -5.1292   -7.0439    5.1566 C.3       1 <0>         0.1680
     24 C12        -3.9052   -6.6122    4.3465 C.3       1 <0>         0.0480
     25 H5         -4.2241   -6.1622    3.4064 H         1 <0>         0.0959
     26 C13        -3.0066   -7.8352    4.0634 C.3       1 <0>        -0.1474
     27 C14        -1.5809   -7.2425    4.2307 C.3       1 <0>        -0.1547
     28 C15        -1.8233   -6.2069    5.3574 C.3       1 <0>         0.0521
     29 O3         -3.1323   -5.6698    5.0989 O.3       1 <0>        -0.3680
     30 C16        -0.6704   -2.4294    1.3570 C.2       1 <0>         0.5903
     31 O4         -0.8715   -3.5380    1.8148 O.2       1 <0>        -0.5031
     32 N6          0.5327   -1.8128    1.4653 N.am      1 <0>        -0.5686
     33 N7          0.7064   -0.4934    1.1944 N.3       1 <0>        -0.4557
     34 H6          1.0039    1.9031    0.0027 H         1 <0>         0.0724
     35 H7         -0.5459    1.8868   -0.8726 H         1 <0>         0.0770
     36 H8         -0.5289    1.8773    0.9072 H         1 <0>         0.0758
     37 H9         -2.6486   -1.3266   -2.2654 H         1 <0>         0.0639
     38 H10        -3.6040    0.1535   -2.5198 H         1 <0>         0.0799
     39 H11        -1.8259    0.2240   -2.5607 H         1 <0>         0.0752
     40 H12        -3.4930   -1.9335    2.5821 H         1 <0>         0.4060
     41 H13        -4.5166   -4.1415    3.7395 H         1 <0>         0.1252
     42 H14        -5.8035   -2.9263    3.5509 H         1 <0>         0.1086
     43 H15        -8.4311   -3.7630    4.7888 H         1 <0>         0.4539
     44 H16        -4.8097   -7.3996    6.1361 H         1 <0>         0.0947
     45 H17        -5.6488   -7.8451    4.6309 H         1 <0>         0.0991
     46 H18        -3.1861   -8.6255    4.7923 H         1 <0>         0.0794
     47 H19        -3.1579   -8.2010    3.0478 H         1 <0>         0.0861
     48 H20        -0.8718   -8.0078    4.5464 H         1 <0>         0.0825
     49 H21        -1.2480   -6.7552    3.3142 H         1 <0>         0.0812
     50 H22        -1.7996   -6.6952    6.3316 H         1 <0>         0.0592
     51 H23        -1.0749   -5.4158    5.3116 H         1 <0>         0.0832
     52 H24         1.3005   -2.3347    1.7462 H         1 <0>         0.4107
     53 H25         1.6862   -0.2550    1.1588 H         1 <0>         0.3722
@<TRIPOS>BOND
     1    1    2 1
     2    1   34 1
     3    1   35 1
     4    1   36 1
     5    2    3 1
     6    2   33 1
     7    2    4 1
     8    4    9 1
     9    4    5 2
    10    5    6 1
    11    5   30 1
    12    6    7 1
    13    6    8 1
    14    6   12 1
    15    8    9 1
    16    9   10 1
    17    9   11 1
    18   11   37 1
    19   11   38 1
    20   11   39 1
    21   12   13 am
    22   12   40 1
    23   13   14 2
    24   13   15 1
    25   15   16 1
    26   15   41 1
    27   15   42 1
    28   16   17 1
    29   17   18 1
    30   17   22 1
    31   17   19 1
    32   19   20 1
    33   19   43 1
    34   20   21 2
    35   21   22 1
    36   22   23 1
    37   23   24 1
    38   23   44 1
    39   23   45 1
    40   24   25 1
    41   24   29 1
    42   24   26 1
    43   26   27 1
    44   26   46 1
    45   26   47 1
    46   27   28 1
    47   27   48 1
    48   27   49 1
    49   28   29 1
    50   28   50 1
    51   28   51 1
    52   30   31 2
    53   30   32 am
    54   32   33 1
    55   32   52 1
    56   33   53 1
@<TRIPOS>MOLECULE
ZINC01278162
   31    33     0     0     0
SMALL
USER_CHARGES
3-amino-7-phenyl-6-oxa-4-azabicyclo[3.3.0]oct-2-ene-1,2-dicarbonitrile
@<TRIPOS>ATOM
      1 C1         -2.1011    0.3715   -5.9059 C.ar      1 <0>        -0.1141
      2 C2         -3.1136    0.8157   -5.0762 C.ar      1 <0>        -0.1200
      3 C3         -2.9036    0.8980   -3.7124 C.ar      1 <0>        -0.1064
      4 C4         -1.6813    0.5352   -3.1782 C.ar      1 <0>        -0.0891
      5 C5         -0.6672    0.0955   -4.0084 C.ar      1 <0>        -0.0908
      6 C6         -0.8787    0.0091   -5.3717 C.ar      1 <0>        -0.1225
      7 C7         -1.4524    0.6249   -1.6914 C.3       1 <0>         0.1230
      8 H1         -2.4001    0.5799   -1.1548 H         1 <0>         0.0942
      9 C8         -0.6601    1.9213   -1.3450 C.3       1 <0>        -0.1254
     10 C9         -0.0189    1.5448    0.0105 C.3       1 <0>         0.0881
     11 C10         0.0021   -0.0041    0.0020 C.3       1 <0>         0.3199
     12 H2         -0.5363   -0.4222    0.8526 H         1 <0>         0.1250
     13 O1         -0.5677   -0.4258   -1.2492 O.3       1 <0>        -0.3633
     14 N1          1.4307   -0.3457    0.0386 N.pl3     1 <0>        -0.7105
     15 C11         2.1842    0.7910    0.0198 C.2       1 <0>         0.5313
     16 C12         1.4427    1.9272   -0.0014 C.2       1 <0>        -0.3280
     17 C13         1.9583    3.2629   -0.0305 C.1       1 <0>         0.2930
     18 N2          2.3673    4.3224   -0.0537 N.1       1 <0>        -0.4581
     19 N3          3.5577    0.7861    0.0228 N.pl3     1 <0>        -0.8434
     20 C14        -0.7410    2.1004    1.1668 C.1       1 <0>         0.2189
     21 N4         -1.2982    2.5291    2.0590 N.1       1 <0>        -0.4053
     22 H3         -2.2652    0.3072   -6.9714 H         1 <0>         0.1227
     23 H4         -4.0686    1.0988   -5.4936 H         1 <0>         0.1248
     24 H5         -3.6945    1.2454   -3.0642 H         1 <0>         0.1247
     25 H6          0.2891   -0.1837   -3.5914 H         1 <0>         0.1270
     26 H7         -0.0878   -0.3383   -6.0199 H         1 <0>         0.1232
     27 H8         -1.3468    2.7600   -1.2309 H         1 <0>         0.0940
     28 H9          0.1051    2.1452   -2.0883 H         1 <0>         0.1097
     29 H10         1.7859   -1.2477    0.0709 H         1 <0>         0.4268
     30 H11         4.0397   -0.0556    0.0385 H         1 <0>         0.4084
     31 H12         4.0458    1.6242    0.0091 H         1 <0>         0.4223
@<TRIPOS>BOND
     1    1    6 ar
     2    1    2 ar
     3    1   22 1
     4    2    3 ar
     5    2   23 1
     6    3    4 ar
     7    3   24 1
     8    4    5 ar
     9    4    7 1
    10    5    6 ar
    11    5   25 1
    12    6   26 1
    13    7    8 1
    14    7   13 1
    15    7    9 1
    16    9   10 1
    17    9   27 1
    18    9   28 1
    19   10   16 1
    20   10   11 1
    21   10   20 1
    22   11   12 1
    23   11   13 1
    24   11   14 1
    25   14   15 1
    26   14   29 1
    27   15   16 2
    28   15   19 1
    29   16   17 1
    30   17   18 3
    31   19   30 1
    32   19   31 1
    33   20   21 3
@<TRIPOS>MOLECULE
ZINC36319088
   33    34     0     0     0
SMALL
USER_CHARGES

@<TRIPOS>ATOM
      1 C1          0.3514    1.7495    0.4883 C.ar      1 <0>        -0.1164
      2 C2          0.3567    0.7284   -0.4422 C.ar      1 <0>        -0.1189
      3 C3          1.4805   -0.0658   -0.5935 C.ar      1 <0>         0.1352
      4 C4          2.6015    0.1609    0.1874 C.ar      1 <0>        -0.6660
      5 C5          2.6005    1.1802    1.1191 C.ar      1 <0>        -0.0787
      6 C6          1.4744    1.9789    1.2720 C.ar      1 <0>         0.1926
      7 N1          1.4716    3.0121    2.2141 N.pl3     1 <0>        -0.8723
      8 S1          4.0298   -0.8523   -0.0075 S.o2      1 <0>         2.6944
      9 O1          5.0069   -0.3549    0.8964 O.2       1 <0>        -0.9493
     10 O2          3.5792   -2.1996    0.0232 O.2       1 <0>        -0.9456
     11 N2          4.6159   -0.5839   -1.5329 N.pl3     1 <0>        -1.1075
     12 C7          5.1219    0.7408   -1.9007 C.3       1 <0>         0.1537
     13 C8          6.6451    0.7700   -1.7412 C.3       1 <0>        -0.1761
     14 C9          7.1727    2.1312   -2.2022 C.3       1 <0>         0.0615
     15 O3          6.7812    2.3581   -3.5577 O.3       1 <0>        -0.3803
     16 C10         5.3668    2.3887   -3.7592 C.3       1 <0>         0.0621
     17 C11         4.7667    1.0378   -3.3608 C.3       1 <0>        -0.1632
     18 F1          1.4834   -1.0639   -1.5041 F         1 <0>        -0.1264
     19 H1         -0.5239    2.3716    0.6029 H         1 <0>         0.1407
     20 H2         -0.5167    0.5494   -1.0518 H         1 <0>         0.1466
     21 H3          3.4747    1.3563    1.7284 H         1 <0>         0.1515
     22 H4          0.6847    3.5692    2.3205 H         1 <0>         0.4036
     23 H5          2.2564    3.1717    2.7612 H         1 <0>         0.4043
     24 H6          4.6243   -1.3039   -2.1829 H         1 <0>         0.4225
     25 H7          4.6719    1.4951   -1.2552 H         1 <0>         0.0858
     26 H8          6.9048    0.6142   -0.6941 H         1 <0>         0.0907
     27 H9          7.0901   -0.0180   -2.3489 H         1 <0>         0.0819
     28 H10         6.7587    2.9152   -1.5682 H         1 <0>         0.0538
     29 H11         8.2603    2.1425   -2.1312 H         1 <0>         0.1008
     30 H12         4.9292    3.1761   -3.1455 H         1 <0>         0.0532
     31 H13         5.1535    2.5855   -4.8098 H         1 <0>         0.1002
     32 H14         5.1737    0.2553   -4.0011 H         1 <0>         0.0834
     33 H15         3.6829    1.0737   -3.4719 H         1 <0>         0.0819
@<TRIPOS>BOND
     1    1    6 ar
     2    1    2 ar
     3    1   19 1
     4    2    3 ar
     5    2   20 1
     6    3    4 ar
     7    3   18 1
     8    4    5 ar
     9    4    8 1
    10    5    6 ar
    11    5   21 1
    12    6    7 1
    13    7   22 1
    14    7   23 1
    15    8    9 2
    16    8   10 2
    17    8   11 1
    18   11   12 1
    19   11   24 1
    20   12   17 1
    21   12   13 1
    22   12   25 1
    23   13   14 1
    24   13   26 1
    25   13   27 1
    26   14   15 1
    27   14   28 1
    28   14   29 1
    29   15   16 1
    30   16   17 1
    31   16   30 1
    32   16   31 1
    33   17   32 1
    34   17   33 1
@<TRIPOS>MOLECULE
ZINC41793759
   42    42     0     0     0
SMALL
USER_CHARGES

@<TRIPOS>ATOM
      1 C1         -0.0035    0.8302    1.3786 C.3       1 <0>        -0.1437
      2 C2         -0.0523   -0.5881    0.8066 C.3       1 <0>        -0.0993
      3 H1         -1.0910   -0.8909    0.6743 H         1 <0>         0.1207
      4 C3          0.6637   -0.6178   -0.5452 C.3       1 <0>        -0.1016
      5 C4          0.6149   -2.0360   -1.1171 C.3       1 <0>        -0.0299
      6 C5          1.3080   -2.9994   -0.1516 C.3       1 <0>        -0.1058
      7 C6          0.5920   -2.9698    1.2002 C.3       1 <0>        -0.0499
      8 C7          0.6408   -1.5515    1.7722 C.3       1 <0>        -0.1085
      9 C8         -0.8660   -3.3949    1.0145 C.3       1 <0>        -0.1902
     10 C9          1.2851   -3.9332    2.1657 C.3       1 <0>        -0.1406
     11 C10        -0.8212   -2.4547   -1.3000 C.2       1 <0>         0.5094
     12 O1         -1.7203   -1.6611   -1.0803 O.co2     1 <0>        -0.6374
     13 O2         -1.0839   -3.5871   -1.6678 O.co2     1 <0>        -0.6504
     14 N1          1.3024   -2.0645   -2.4150 N.4       1 <0>        -0.4699
     15 C11         0.5930   -1.1960   -3.3640 C.3       1 <0>        -0.0262
     16 C12         1.2584   -1.2777   -4.7137 C.2       1 <0>         0.5043
     17 O3          2.2281   -1.9893   -4.8697 O.2       1 <0>        -0.5340
     18 N2          0.7760   -0.5600   -5.7474 N.am      1 <0>        -0.7127
     19 C13         1.4228   -0.6394   -7.0595 C.3       1 <0>         0.0822
     20 H2          1.0352    1.1330    1.5109 H         1 <0>         0.0479
     21 H3         -0.4973    1.5165    0.6907 H         1 <0>         0.0557
     22 H4         -0.5136    0.8513    2.3416 H         1 <0>         0.0582
     23 H5          0.1699    0.0686   -1.2330 H         1 <0>         0.0793
     24 H6          1.7024   -0.3149   -0.4129 H         1 <0>         0.0631
     25 H7          1.2732   -4.0098   -0.5591 H         1 <0>         0.0863
     26 H8          2.3467   -2.6966   -0.0193 H         1 <0>         0.0693
     27 H9          1.6795   -1.2487    1.9045 H         1 <0>         0.0577
     28 H10         0.1307   -1.5304    2.7352 H         1 <0>         0.0689
     29 H11        -0.9157   -4.2237    0.3084 H         1 <0>         0.0790
     30 H12        -1.2778   -3.7093    1.9735 H         1 <0>         0.0436
     31 H13        -1.4433   -2.5543    0.6293 H         1 <0>         0.1014
     32 H14         2.3238   -3.6304    2.2980 H         1 <0>         0.0519
     33 H15         0.7750   -3.9121    3.1288 H         1 <0>         0.0602
     34 H16         1.2503   -4.9436    1.7582 H         1 <0>         0.0573
     35 H17         2.2494   -1.7355   -2.3013 H         1 <0>         0.4136
     36 H18        -0.4436   -1.5218   -3.4497 H         1 <0>         0.1640
     37 H19         0.6221   -0.1668   -3.0063 H         1 <0>         0.1564
     38 H20         0.0005    0.0091   -5.6227 H         1 <0>         0.4130
     39 H21         2.4595   -0.3137   -6.9738 H         1 <0>         0.0682
     40 H22         1.3938   -1.6687   -7.4172 H         1 <0>         0.0692
     41 H23         0.8965    0.0050   -7.7637 H         1 <0>         0.0870
     42 H24         1.3147   -3.0095   -2.7684 H         1 <0>         0.4324
@<TRIPOS>BOND
     1    1    2 1
     2    1   20 1
     3    1   21 1
     4    1   22 1
     5    2    3 1
     6    2    8 1
     7    2    4 1
     8    4    5 1
     9    4   23 1
    10    4   24 1
    11    5    6 1
    12    5   11 1
    13    5   14 1
    14    6    7 1
    15    6   25 1
    16    6   26 1
    17    7    8 1
    18    7    9 1
    19    7   10 1
    20    8   27 1
    21    8   28 1
    22    9   29 1
    23    9   30 1
    24    9   31 1
    25   10   32 1
    26   10   33 1
    27   10   34 1
    28   11   12 2
    29   11   13 1
    30   14   15 1
    31   14   35 1
    32   14   42 1
    33   15   16 1
    34   15   36 1
    35   15   37 1
    36   16   17 2
    37   16   18 am
    38   18   19 1
    39   18   38 1
    40   19   39 1
    41   19   40 1
    42   19   41 1
@<TRIPOS>MOLECULE
ZINC50397724
   39    41     0     0     0
SMALL
USER_CHARGES

@<TRIPOS>ATOM
      1 C1         -0.0166    1.3761    0.0096 C.ar      1 <0>        -0.1114
      2 C2          1.1733    2.0801    0.0020 C.ar      1 <0>        -0.1196
      3 C3          2.3742    1.4000   -0.0110 C.ar      1 <0>        -0.1070
      4 C4          2.3947    0.0129   -0.0179 C.ar      1 <0>        -0.0780
      5 C5          1.2082   -0.6884   -0.0140 C.ar      1 <0>        -0.0570
      6 C6          0.0021   -0.0041    0.0020 C.ar      1 <0>        -0.1220
      7 C7          1.1797   -2.1951   -0.0327 C.3       1 <0>        -0.0810
      8 C8          2.5482   -2.7481    0.3660 C.3       1 <0>         0.0576
      9 N1          3.5770   -2.0806   -0.4473 N.3       1 <0>        -0.6617
     10 C9          3.7299   -0.6843   -0.0265 C.3       1 <0>         0.1192
     11 H1          4.1583   -0.6548    0.9753 H         1 <0>         0.0692
     12 C10         4.6559    0.0249   -0.9807 C.2       1 <0>         0.5277
     13 O1          4.8365   -0.4204   -2.0943 O.2       1 <0>        -0.4905
     14 N2          5.2835    1.1541   -0.5966 N.am      1 <0>        -0.7223
     15 C11         6.1838    1.8435   -1.5242 C.3       1 <0>         0.1378
     16 H2          6.7048    1.1080   -2.1371 H         1 <0>         0.1202
     17 C12         7.2065    2.6587   -0.7288 C.3       1 <0>        -0.1308
     18 C13         7.9540    3.5795   -1.7009 C.3       1 <0>        -0.1348
     19 C14         6.9761    4.6285   -2.2316 C.3       1 <0>         0.1064
     20 N3          5.7659    3.9900   -2.7338 N.am      1 <0>        -0.7216
     21 C15         5.3844    2.7550   -2.4105 C.2       1 <0>         0.4983
     22 O2          4.3347    2.3446   -2.8584 O.2       1 <0>        -0.5236
     23 H3         -0.9583    1.9047    0.0259 H         1 <0>         0.1239
     24 H4          1.1631    3.1601    0.0059 H         1 <0>         0.1220
     25 H5          3.3031    1.9508   -0.0162 H         1 <0>         0.1190
     26 H6         -0.9274   -0.5539    0.0085 H         1 <0>         0.1245
     27 H7          0.4266   -2.5516    0.6701 H         1 <0>         0.0811
     28 H8          0.9284   -2.5398   -1.0358 H         1 <0>         0.0877
     29 H9          2.7300   -2.5489    1.4221 H         1 <0>         0.0394
     30 H10         2.5766   -3.8223    0.1829 H         1 <0>         0.0881
     31 H11         4.4562   -2.5728   -0.3933 H         1 <0>         0.3525
     32 H12         5.1392    1.5103    0.2940 H         1 <0>         0.4016
     33 H13         6.6932    3.2580    0.0231 H         1 <0>         0.0780
     34 H14         7.9137    1.9864   -0.2429 H         1 <0>         0.0869
     35 H15         8.7733    4.0741   -1.1792 H         1 <0>         0.0936
     36 H16         8.3472    2.9928   -2.5312 H         1 <0>         0.0781
     37 H17         6.7136    5.3158   -1.4274 H         1 <0>         0.0678
     38 H18         7.4501    5.1872   -3.0386 H         1 <0>         0.0803
     39 H19         5.2028    4.4963   -3.3400 H         1 <0>         0.4007
@<TRIPOS>BOND
     1    1    6 ar
     2    1    2 ar
     3    1   23 1
     4    2    3 ar
     5    2   24 1
     6    3    4 ar
     7    3   25 1
     8    4   10 1
     9    4    5 ar
    10    5    6 ar
    11    5    7 1
    12    6   26 1
    13    7    8 1
    14    7   27 1
    15    7   28 1
    16    8    9 1
    17    8   29 1
    18    8   30 1
    19    9   10 1
    20    9   31 1
    21   10   11 1
    22   10   12 1
    23   12   13 2
    24   12   14 am
    25   14   15 1
    26   14   32 1
    27   15   16 1
    28   15   21 1
    29   15   17 1
    30   17   18 1
    31   17   33 1
    32   17   34 1
    33   18   19 1
    34   18   35 1
    35   18   36 1
    36   19   20 1
    37   19   37 1
    38   19   38 1
    39   20   21 am
    40   20   39 1
    41   21   22 2
@<TRIPOS>MOLECULE
ZINC48836616
   40    42     0     0     0
SMALL
USER_CHARGES

@<TRIPOS>ATOM
      1 C1          0.0123    1.3865   -0.0282 C.ar      1 <0>        -0.1653
      2 C2          1.2062    2.0841   -0.0372 C.ar      1 <0>        -0.0923
      3 C3          2.4041    1.3996   -0.0431 C.ar      1 <0>        -0.1576
      4 C4          2.4155    0.0082   -0.0387 C.ar      1 <0>         0.1411
      5 C5          1.2193   -0.6872   -0.0262 C.ar      1 <0>        -0.1219
      6 C6          0.0198    0.0054   -0.0231 C.ar      1 <0>        -0.0675
      7 C7          1.1869   -2.1944   -0.0097 C.3       1 <0>         0.0889
      8 C8          2.5452   -2.7443   -0.4520 C.3       1 <0>        -0.1654
      9 C9          3.6410   -2.0072    0.3285 C.3       1 <0>         0.0515
     10 O1          3.6146   -0.6302   -0.0500 O.3       1 <0>        -0.3207
     11 C10         0.8821   -2.6742    1.3860 C.2       1 <0>         0.5145
     12 O2         -0.1100   -3.3514    1.5948 O.co2     1 <0>        -0.6699
     13 O3          1.6276   -2.3850    2.3064 O.co2     1 <0>        -0.6724
     14 N1          0.1441   -2.6709   -0.9281 N.3       1 <0>        -0.4953
     15 C11         0.2705   -2.0328   -2.2446 C.3       1 <0>         0.0397
     16 C12        -0.9124   -2.4400   -3.1260 C.3       1 <0>        -0.1322
     17 C13        -0.9299   -3.9637   -3.2762 C.3       1 <0>         0.0219
     18 C14        -1.0134   -4.6046   -1.8881 C.3       1 <0>        -0.1314
     19 C15         0.1725   -4.1347   -1.0425 C.3       1 <0>         0.0519
     20 N2         -2.0969   -4.3650   -4.0732 N.4       1 <0>        -0.6345
     21 H1         -0.9259    1.9215   -0.0207 H         1 <0>         0.1184
     22 H2          1.2010    3.1641   -0.0400 H         1 <0>         0.1234
     23 H3          3.3360    1.9455   -0.0514 H         1 <0>         0.1258
     24 H4         -0.9140   -0.5371   -0.0166 H         1 <0>         0.1279
     25 H5          2.5967   -3.8118   -0.2381 H         1 <0>         0.0765
     26 H6          2.6791   -2.5764   -1.5206 H         1 <0>         0.0585
     27 H7          3.4536   -2.0975    1.3985 H         1 <0>         0.1084
     28 H8          4.6141   -2.4354    0.0882 H         1 <0>         0.0951
     29 H9          0.2776   -0.9495   -2.1239 H         1 <0>         0.0983
     30 H10         1.2007   -2.3517   -2.7149 H         1 <0>         0.0358
     31 H11        -1.8421   -2.1092   -2.6631 H         1 <0>         0.0946
     32 H12        -0.8100   -1.9787   -4.1083 H         1 <0>         0.0842
     33 H13        -0.0174   -4.2912   -3.7744 H         1 <0>         0.1347
     34 H14        -1.9446   -4.3079   -1.4057 H         1 <0>         0.0970
     35 H15        -0.9832   -5.6898   -1.9859 H         1 <0>         0.0853
     36 H16         1.1031   -4.4437   -1.5185 H         1 <0>         0.0303
     37 H17         0.1083   -4.5780   -0.0488 H         1 <0>         0.1267
     38 H18        -2.0438   -3.9381   -4.9859 H         1 <0>         0.4306
     39 H19        -2.1077   -5.3691   -4.1717 H         1 <0>         0.4323
     40 H20        -2.9407   -4.0634   -3.6094 H         1 <0>         0.4331
@<TRIPOS>BOND
     1    1    6 ar
     2    1    2 ar
     3    1   21 1
     4    2    3 ar
     5    2   22 1
     6    3    4 ar
     7    3   23 1
     8    4   10 1
     9    4    5 ar
    10    5    6 ar
    11    5    7 1
    12    6   24 1
    13    7    8 1
    14    7   11 1
    15    7   14 1
    16    8    9 1
    17    8   25 1
    18    8   26 1
    19    9   10 1
    20    9   27 1
    21    9   28 1
    22   11   12 2
    23   11   13 1
    24   14   19 1
    25   14   15 1
    26   15   16 1
    27   15   29 1
    28   15   30 1
    29   16   17 1
    30   16   31 1
    31   16   32 1
    32   17   18 1
    33   17   20 1
    34   17   33 1
    35   18   19 1
    36   18   34 1
    37   18   35 1
    38   19   36 1
    39   19   37 1
    40   20   38 1
    41   20   39 1
    42   20   40 1
@<TRIPOS>MOLECULE
ZINC00099238
   24    25     0     0     0
SMALL
USER_CHARGES
(2R,4R)-2-(5-nitro-2-thienyl)thiazolidine-4-carboxylic acid
@<TRIPOS>ATOM
      1 C1         -2.6918   -5.5286   -0.5241 C.2       1 <0>        -0.0992
      2 C2         -2.1394   -6.7956   -0.5066 C.2       1 <0>        -0.0544
      3 C3         -0.8148   -6.9316   -0.2531 C.2       1 <0>        -0.1247
      4 S1         -0.3042   -5.2348   -0.0361 S.3       1 <0>         0.2378
      5 C4         -1.8927   -4.4597   -0.2874 C.2       1 <0>        -0.1805
      6 C5         -2.2509   -2.9963   -0.2520 C.3       1 <0>         0.1575
      7 H1         -3.0475   -2.7699   -0.9607 H         1 <0>         0.1915
      8 C6         -1.2926   -0.7753    0.0102 C.3       1 <0>        -0.0338
      9 H2         -2.0140   -0.2753   -0.6361 H         1 <0>         0.1592
     10 C7         -1.8497   -0.8271    1.4570 C.3       1 <0>        -0.0607
     11 S2         -2.7023   -2.4603    1.4538 S.3       1 <0>        -0.1866
     12 C8          0.0021   -0.0041    0.0020 C.2       1 <0>         0.4637
     13 O1          1.0565   -0.5939   -0.0112 O.co2     1 <0>        -0.6015
     14 N1         -0.0012   -8.1664   -0.1820 N.pl3     1 <0>         0.0623
     15 O2         -0.5236   -9.2513   -0.3655 O.2       1 <0>        -0.1180
     16 O3          1.1905   -8.0974    0.0601 O.3       1 <0>        -0.1279
     17 H3         -3.7446   -5.3925   -0.7232 H         1 <0>         0.1718
     18 H4         -2.7539   -7.6641   -0.6923 H         1 <0>         0.1764
     19 H5         -1.0422   -0.8080    2.1889 H         1 <0>         0.1325
     20 H6         -2.5563   -0.0164    1.6343 H         1 <0>         0.1505
     21 N2         -1.0473   -2.1408   -0.4967 N.4       1 <0>        -0.5137
     22 H7         -0.8566   -2.1010   -1.5048 H         1 <0>         0.4421
     23 H8         -0.2378   -2.5444   -0.0109 H         1 <0>         0.4363
     24 O4         -0.0161    1.3381    0.0094 O.co2     1 <0>        -0.6804
@<TRIPOS>BOND
     1    1    5 2
     2    1    2 1
     3    1   17 1
     4    2    3 2
     5    2   18 1
     6    3    4 1
     7    3   14 1
     8    4    5 1
     9    5    6 1
    10    6    7 1
    11    6   11 1
    12    6   21 1
    13    8    9 1
    14    8   10 1
    15    8   12 1
    16    8   21 1
    17   10   11 1
    18   10   19 1
    19   10   20 1
    20   12   13 2
    21   12   24 1
    22   14   15 2
    23   14   16 1
    24   21   22 1
    25   21   23 1
@<TRIPOS>MOLECULE
ZINC36904972
   29    29     0     0     0
SMALL
USER_CHARGES

@<TRIPOS>ATOM
      1 C1         -0.0187    1.5258    0.0104 C.3       1 <0>        -0.1524
      2 C2          0.0021   -0.0041    0.0020 C.3       1 <0>        -0.0264
      3 H1         -1.0205   -0.3814    0.0098 H         1 <0>         0.1230
      4 C3          0.7309   -0.5033    1.2229 C.2       1 <0>         0.5149
      5 O1          1.7797    0.0071    1.5537 O.2       1 <0>        -0.4373
      6 N1          0.2169   -1.5171    1.9471 N.am      1 <0>        -0.6865
      7 C4          0.8687   -1.9636    3.0389 C.2       1 <0>         0.6958
      8 O2          1.9201   -1.4519    3.3706 O.2       1 <0>        -0.5199
      9 N2          0.3547   -2.9774    3.7631 N.am      1 <0>        -0.7236
     10 C5          1.0632   -3.4627    4.9500 C.3       1 <0>         0.1579
     11 H2          1.5632   -2.6308    5.4460 H         1 <0>         0.1185
     12 C6          2.1001   -4.5213    4.5391 C.3       1 <0>        -0.1433
     13 C7          2.6211   -5.2641    5.7930 C.3       1 <0>        -0.5728
     14 S1          1.1984   -5.1462    6.9526 S.o2      1 <0>         2.3802
     15 O3          0.6358   -6.4393    7.1271 O.2       1 <0>        -0.9297
     16 O4          1.5925   -4.3954    8.0929 O.2       1 <0>        -0.9261
     17 C8          0.0541   -4.1281    5.9288 C.3       1 <0>        -0.5972
     18 Cl1         0.8460   -0.5855   -1.4814 Cl        1 <0>        -0.1278
     19 H3          1.0039    1.9031    0.0027 H         1 <0>         0.0846
     20 H4         -0.5459    1.8868   -0.8726 H         1 <0>         0.0858
     21 H5         -0.5289    1.8773    0.9072 H         1 <0>         0.0798
     22 H6         -0.6222   -1.9254    1.6824 H         1 <0>         0.4132
     23 H7         -0.4844   -3.3857    3.4984 H         1 <0>         0.4056
     24 H8          1.6367   -5.2376    3.8607 H         1 <0>         0.0915
     25 H9          2.9344   -4.0340    4.0345 H         1 <0>         0.1045
     26 H10         2.8449   -6.3052    5.5604 H         1 <0>         0.1465
     27 H11         3.4971   -4.7619    6.2037 H         1 <0>         0.1445
     28 H12        -0.4580   -3.3810    6.5352 H         1 <0>         0.1501
     29 H13        -0.6594   -4.7547    5.3936 H         1 <0>         0.1469
@<TRIPOS>BOND
     1    1    2 1
     2    1   19 1
     3    1   20 1
     4    1   21 1
     5    2    3 1
     6    2    4 1
     7    2   18 1
     8    4    5 2
     9    4    6 am
    10    6    7 am
    11    6   22 1
    12    7    8 2
    13    7    9 am
    14    9   10 1
    15    9   23 1
    16   10   11 1
    17   10   17 1
    18   10   12 1
    19   12   13 1
    20   12   24 1
    21   12   25 1
    22   13   14 1
    23   13   26 1
    24   13   27 1
    25   14   15 2
    26   14   16 2
    27   14   17 1
    28   17   28 1
    29   17   29 1
@<TRIPOS>MOLECULE
ZINC42414040
   32    34     0     0     0
SMALL
USER_CHARGES

@<TRIPOS>ATOM
      1 C1         -0.0187    1.5258    0.0104 C.3       1 <0>        -0.1386
      2 C2          0.0021   -0.0041    0.0020 C.3       1 <0>         0.1804
      3 C3         -1.4054   -0.6221    0.0231 C.3       1 <0>        -0.1101
      4 C4         -1.6165   -0.8239    1.5430 C.3       1 <0>        -0.1399
      5 C5         -0.2182   -0.9590    2.0979 C.2       1 <0>         0.5426
      6 O1          0.0455   -1.3465    3.2165 O.2       1 <0>        -0.4773
      7 N1          0.7028   -0.5871    1.1729 N.am      1 <0>        -0.6185
      8 C6          2.1574   -0.6368    0.9848 C.3       1 <0>         0.1437
      9 H1          2.5859    0.3012    1.3376 H         1 <0>         0.1139
     10 C7          2.5920   -0.8565   -0.4796 C.3       1 <0>        -0.0804
     11 S1          0.9924   -0.7029   -1.3797 S.3       1 <0>        -0.2529
     12 C8          2.7121   -1.7612    1.8209 C.2       1 <0>         0.5087
     13 O2          1.9670   -2.4400    2.4956 O.2       1 <0>        -0.4605
     14 N2          4.0363   -2.0126    1.8189 N.am      1 <0>        -0.6354
     15 C9          4.5522   -3.0584    2.5965 C.2       1 <0>         0.3008
     16 C10         3.8075   -3.9220    3.4157 C.2       1 <0>        -0.2675
     17 C11         4.6683   -4.7893    3.9951 C.2       1 <0>         0.0700
     18 N3          5.9113   -4.4901    3.5625 N.pl3     1 <0>        -0.4685
     19 H2          6.7281   -4.9487    3.8143 H         1 <0>         0.4438
     20 N4          5.8149   -3.4050    2.6819 N.2       1 <0>        -0.3206
     21 H3          1.0039    1.9031    0.0027 H         1 <0>         0.0687
     22 H4         -0.5459    1.8868   -0.8726 H         1 <0>         0.0857
     23 H5         -0.5289    1.8773    0.9072 H         1 <0>         0.0750
     24 H6         -2.1432    0.0671   -0.3877 H         1 <0>         0.1020
     25 H7         -1.4238   -1.5751   -0.5058 H         1 <0>         0.0990
     26 H8         -2.1168    0.0419    1.9767 H         1 <0>         0.1118
     27 H9         -2.1906   -1.7311    1.7311 H         1 <0>         0.1142
     28 H10         3.2933   -0.0851   -0.7976 H         1 <0>         0.1233
     29 H11         3.0206   -1.8497   -0.6138 H         1 <0>         0.1163
     30 H12         4.6322   -1.4698    1.2794 H         1 <0>         0.4153
     31 H13         2.7372   -3.8980    3.5578 H         1 <0>         0.1722
     32 H14         4.4076   -5.5805    4.6824 H         1 <0>         0.1824
@<TRIPOS>BOND
     1    1    2 1
     2    1   21 1
     3    1   22 1
     4    1   23 1
     5    2    7 1
     6    2   11 1
     7    2    3 1
     8    3    4 1
     9    3   24 1
    10    3   25 1
    11    4    5 1
    12    4   26 1
    13    4   27 1
    14    5    6 2
    15    5    7 am
    16    7    8 1
    17    8    9 1
    18    8   10 1
    19    8   12 1
    20   10   11 1
    21   10   28 1
    22   10   29 1
    23   12   13 2
    24   12   14 am
    25   14   15 1
    26   14   30 1
    27   15   20 2
    28   15   16 1
    29   16   17 2
    30   16   31 1
    31   17   18 1
    32   17   32 1
    33   18   19 1
    34   18   20 1
@<TRIPOS>MOLECULE
ZINC49475538
   37    38     0     0     0
SMALL
USER_CHARGES

@<TRIPOS>ATOM
      1 C1         -0.0178    1.4608    0.0101 C.3       1 <0>         0.0850
      2 N1          0.0021   -0.0041    0.0020 N.am      1 <0>        -0.7366
      3 C2          0.5851   -0.6645   -1.0180 C.2       1 <0>         0.5140
      4 O1          1.0933   -0.0461   -1.9292 O.2       1 <0>        -0.5349
      5 C3          0.6055   -2.1713   -1.0263 C.3       1 <0>        -0.1071
      6 C4         -0.8299   -2.7009   -1.0154 C.3       1 <0>        -0.1131
      7 C5         -0.8091   -4.2308   -1.0238 C.3       1 <0>        -0.1257
      8 C6         -0.0930   -4.7242   -2.2826 C.3       1 <0>         0.1417
      9 C7          1.3424   -4.1946   -2.2935 C.3       1 <0>        -0.1320
     10 C8          1.3217   -2.6648   -2.2851 C.3       1 <0>        -0.0990
     11 N2         -0.8015   -4.2389   -3.4695 N.am      1 <0>        -0.7023
     12 C9         -0.7007   -4.9080   -4.6351 C.2       1 <0>         0.5777
     13 O2         -0.0221   -5.9138   -4.7015 O.2       1 <0>        -0.5244
     14 C10        -1.4172   -4.4172   -5.8353 C.ar      1 <0>         0.0246
     15 C11        -1.3190   -5.1111   -7.0408 C.ar      1 <0>         0.1118
     16 N3         -1.9600   -4.6699   -8.1080 N.ar      1 <0>        -0.4382
     17 C12        -2.6931   -3.5730   -8.0336 C.ar      1 <0>         0.0764
     18 C13        -2.7925   -2.8801   -6.8359 C.ar      1 <0>         0.0509
     19 N4         -2.1605   -3.3165   -5.7648 N.ar      1 <0>        -0.4134
     20 H1          1.0048    1.8381    0.0023 H         1 <0>         0.0598
     21 H2         -0.5450    1.8219   -0.8730 H         1 <0>         0.0598
     22 H3         -0.5280    1.8123    0.9069 H         1 <0>         0.0758
     23 H4         -0.4044   -0.4986    0.7308 H         1 <0>         0.4017
     24 H5          1.1327   -2.5324   -0.1432 H         1 <0>         0.1010
     25 H6         -1.3401   -2.3494   -0.1186 H         1 <0>         0.0736
     26 H7         -1.3571   -2.3398   -1.8985 H         1 <0>         0.0682
     27 H8         -0.2819   -4.5918   -0.1408 H         1 <0>         0.0863
     28 H9         -1.8317   -4.6080   -1.0161 H         1 <0>         0.0768
     29 H10        -0.0782   -5.8141   -2.2886 H         1 <0>         0.0956
     30 H11         1.8696   -4.5557   -1.4104 H         1 <0>         0.0774
     31 H12         1.8526   -4.5461   -3.1903 H         1 <0>         0.0747
     32 H13         0.7945   -2.3037   -3.1681 H         1 <0>         0.0702
     33 H14         2.3442   -2.2875   -2.2928 H         1 <0>         0.0720
     34 H15        -1.3433   -3.4360   -3.4164 H         1 <0>         0.4096
     35 H16        -0.7195   -6.0074   -7.1019 H         1 <0>         0.1838
     36 H17        -3.2161   -3.2147   -8.9080 H         1 <0>         0.1788
     37 H18        -3.3926   -1.9839   -6.7799 H         1 <0>         0.1795
@<TRIPOS>BOND
     1    1    2 1
     2    1   20 1
     3    1   21 1
     4    1   22 1
     5    2    3 am
     6    2   23 1
     7    3    4 2
     8    3    5 1
     9    5   10 1
    10    5    6 1
    11    5   24 1
    12    6    7 1
    13    6   25 1
    14    6   26 1
    15    7    8 1
    16    7   27 1
    17    7   28 1
    18    8    9 1
    19    8   11 1
    20    8   29 1
    21    9   10 1
    22    9   30 1
    23    9   31 1
    24   10   32 1
    25   10   33 1
    26   11   12 am
    27   11   34 1
    28   12   13 2
    29   12   14 1
    30   14   19 ar
    31   14   15 ar
    32   15   16 ar
    33   15   35 1
    34   16   17 ar
    35   17   18 ar
    36   17   36 1
    37   18   19 ar
    38   18   37 1
@<TRIPOS>MOLECULE
ZINC62806048
   33    35     0     0     0
SMALL
USER_CHARGES

@<TRIPOS>ATOM
      1 C1         -0.0860    1.3563   -0.5108 C.ar      1 <0>        -0.2390
      2 C2          1.0759    2.0539   -0.7857 C.ar      1 <0>        -0.0088
      3 C3          2.2860    1.3962   -0.8102 C.ar      1 <0>        -0.2105
      4 C4          2.3615    0.0322   -0.5546 C.ar      1 <0>         0.1613
      5 C5          1.1901   -0.6677   -0.2826 C.ar      1 <0>        -0.1722
      6 C6         -0.0267   -0.0073   -0.2611 C.ar      1 <0>         0.1707
      7 O1         -1.1669   -0.6971    0.0054 O.3       1 <0>        -0.2960
      8 C7         -2.3711    0.0625    0.1278 C.3       1 <0>         0.0820
      9 H1         -2.1368    1.0067    0.6193 H         1 <0>         0.1202
     10 C8         -2.9099    0.3642   -1.2886 C.3       1 <0>        -0.6005
     11 S1         -4.2028   -0.9410   -1.4678 S.o2      1 <0>         2.3754
     12 O2         -5.2914   -0.4249   -2.2213 O.2       1 <0>        -0.9255
     13 O3         -3.5888   -2.1609   -1.8604 O.2       1 <0>        -0.9117
     14 C9         -4.6844   -1.0422    0.3114 C.3       1 <0>        -0.6106
     15 C10        -3.3463   -0.7112    1.0022 C.3       1 <0>         0.1119
     16 H2         -2.8738   -1.6444    1.3087 H         1 <0>         0.1007
     17 O4         -3.6206    0.0610    2.1729 O.3       1 <0>        -0.5511
     18 O5          3.6487   -0.4083   -0.6074 O.3       1 <0>        -0.2929
     19 C11         4.4452    0.5430   -1.3337 C.3       1 <0>         0.0199
     20 C12         3.6983    1.8750   -1.0864 C.3       1 <0>         0.1214
     21 H3          3.7284    2.5088   -1.9727 H         1 <0>         0.0871
     22 O6          4.2363    2.5593    0.0469 O.3       1 <0>        -0.5501
     23 H4         -1.0350    1.8714   -0.4861 H         1 <0>         0.1399
     24 H5          1.0346    3.1152   -0.9816 H         1 <0>         0.1327
     25 H6          1.2300   -1.7293   -0.0884 H         1 <0>         0.1429
     26 H7         -3.3496    1.3604   -1.3365 H         1 <0>         0.1572
     27 H8         -2.1278    0.2465   -2.0386 H         1 <0>         0.1554
     28 H9         -5.4461   -0.3012    0.5539 H         1 <0>         0.1542
     29 H10        -5.0206   -2.0463    0.5698 H         1 <0>         0.1518
     30 H11        -4.2366   -0.3613    2.7872 H         1 <0>         0.3954
     31 H12         5.4570    0.5871   -0.9307 H         1 <0>         0.1143
     32 H13         4.4619    0.3012   -2.3964 H         1 <0>         0.0909
     33 H14         5.1379    2.8844   -0.0815 H         1 <0>         0.3835
@<TRIPOS>BOND
     1    1    6 ar
     2    1    2 ar
     3    1   23 1
     4    2    3 ar
     5    2   24 1
     6    3   20 1
     7    3    4 ar
     8    4    5 ar
     9    4   18 1
    10    5    6 ar
    11    5   25 1
    12    6    7 1
    13    7    8 1
    14    8    9 1
    15    8   15 1
    16    8   10 1
    17   10   11 1
    18   10   26 1
    19   10   27 1
    20   11   12 2
    21   11   13 2
    22   11   14 1
    23   14   15 1
    24   14   28 1
    25   14   29 1
    26   15   16 1
    27   15   17 1
    28   17   30 1
    29   18   19 1
    30   19   20 1
    31   19   31 1
    32   19   32 1
    33   20   21 1
    34   20   22 1
    35   22   33 1
@<TRIPOS>MOLECULE
ZINC04755337
   50    53     0     0     0
SMALL
USER_CHARGES
6-[(3-carbamoyl-4-morpholino-phenyl)carbamoyl]bicyclo[2.2.1]hept-2-ene-5-carboxylic acid
@<TRIPOS>ATOM
      1 C1         -2.0102    5.4013    3.7867 C.ar      1 <0>        -0.0848
      2 C2         -1.4098    4.9160    2.6435 C.ar      1 <0>        -0.1388
      3 C3         -1.4003    3.5512    2.3863 C.ar      1 <0>         0.1218
      4 C4         -2.0084    2.6669    3.2907 C.ar      1 <0>        -0.0995
      5 C5         -2.6076    3.1671    4.4491 C.ar      1 <0>        -0.1126
      6 C6         -2.6093    4.5297    4.6904 C.ar      1 <0>         0.1519
      7 N1         -3.2162    5.0332    5.8492 N.am      1 <0>        -0.6765
      8 C7         -3.8585    6.2176    5.8134 C.2       1 <0>         0.5337
      9 O1         -3.8396    6.8874    4.8023 O.2       1 <0>        -0.5291
     10 C8         -4.6000    6.7097    7.0295 C.3       1 <0>        -0.1077
     11 H1         -3.9296    6.7719    7.8866 H         1 <0>         0.1251
     12 C9         -5.2594    8.0971    6.7464 C.3       1 <0>        -0.0470
     13 H2         -4.6391    8.8303    6.2308 H         1 <0>         0.1016
     14 C10        -6.5727    7.6424    6.0105 C.3       1 <0>        -0.1210
     15 C11        -7.0390    6.7364    7.2083 C.3       1 <0>        -0.0556
     16 H3         -8.0164    6.2637    7.1120 H         1 <0>         0.1005
     17 C12        -5.8047    5.7886    7.3421 C.3       1 <0>        -0.1163
     18 H4         -5.8646    4.9768    6.6173 H         1 <0>         0.0739
     19 C13        -5.7049    5.2433    8.7435 C.2       1 <0>         0.4737
     20 O2         -4.7693    5.5475    9.4449 O.co2     1 <0>        -0.6331
     21 C14        -6.8745    7.7289    8.3658 C.2       1 <0>        -0.1357
     22 C15        -5.8491    8.5129    8.0996 C.2       1 <0>        -0.1799
     23 C16        -2.0086    1.2170    3.0230 C.2       1 <0>         0.5628
     24 O3         -1.4022    0.7753    2.0659 O.2       1 <0>        -0.5055
     25 N2         -2.6809    0.3812    3.8390 N.am      1 <0>        -0.8584
     26 N3         -0.7951    3.0628    1.2333 N.pl3     1 <0>        -0.4777
     27 C17        -1.4181    3.6325    0.0297 C.3       1 <0>         0.0241
     28 C18        -0.7627    3.0253   -1.2136 C.3       1 <0>         0.0667
     29 O4          0.6469    3.2627   -1.1684 O.3       1 <0>        -0.3875
     30 C19         1.2853    2.7200   -0.0093 C.3       1 <0>         0.0663
     31 C20         0.6514    3.3249    1.2461 C.3       1 <0>         0.0285
     32 H5         -2.0148    6.4636    3.9814 H         1 <0>         0.1458
     33 H6         -0.9464    5.5989    1.9469 H         1 <0>         0.1281
     34 H7         -3.0730    2.4924    5.1522 H         1 <0>         0.1346
     35 H8         -3.1740    4.5293    6.6769 H         1 <0>         0.4193
     36 H9         -7.2551    8.4715    5.8238 H         1 <0>         0.0713
     37 H10        -6.3676    7.0675    5.1074 H         1 <0>         0.0720
     38 H11        -7.4938    7.7772    9.2492 H         1 <0>         0.1218
     39 H12        -5.4854    9.3123    8.7282 H         1 <0>         0.1225
     40 H13        -3.1646    0.7335    4.6024 H         1 <0>         0.3995
     41 H14        -2.6810   -0.5727    3.6629 H         1 <0>         0.4024
     42 H15        -1.2769    4.7133    0.0244 H         1 <0>         0.0452
     43 H16        -2.4838    3.4040    0.0276 H         1 <0>         0.0855
     44 H17        -1.1810    3.4871   -2.1079 H         1 <0>         0.0971
     45 H18        -0.9504    1.9518   -1.2364 H         1 <0>         0.0631
     46 H19         1.1571    1.6376    0.0036 H         1 <0>         0.0642
     47 H20         2.3482    2.9603   -0.0331 H         1 <0>         0.0967
     48 H21         1.0956    2.8719    2.1325 H         1 <0>         0.0857
     49 H22         0.8263    4.4007    1.2599 H         1 <0>         0.0438
     50 O5         -6.6555    4.4198    9.2124 O.co2     1 <0>        -0.7624
@<TRIPOS>BOND
     1    1    6 ar
     2    1    2 ar
     3    1   32 1
     4    2    3 ar
     5    2   33 1
     6    3    4 ar
     7    3   26 1
     8    4    5 ar
     9    4   23 1
    10    5    6 ar
    11    5   34 1
    12    6    7 1
    13    7    8 am
    14    7   35 1
    15    8    9 2
    16    8   10 1
    17   10   11 1
    18   10   17 1
    19   10   12 1
    20   12   13 1
    21   12   22 1
    22   12   14 1
    23   14   15 1
    24   14   36 1
    25   14   37 1
    26   15   16 1
    27   15   17 1
    28   15   21 1
    29   17   18 1
    30   17   19 1
    31   19   20 2
    32   19   50 1
    33   21   22 2
    34   21   38 1
    35   22   39 1
    36   23   24 2
    37   23   25 am
    38   25   40 1
    39   25   41 1
    40   26   31 1
    41   26   27 1
    42   27   28 1
    43   27   42 1
    44   27   43 1
    45   28   29 1
    46   28   44 1
    47   28   45 1
    48   29   30 1
    49   30   31 1
    50   30   46 1
    51   30   47 1
    52   31   48 1
    53   31   49 1
@<TRIPOS>MOLECULE
ZINC21004158
   42    43     0     0     0
SMALL
USER_CHARGES
2-[(3,5-diacetamidobenzoyl)amino]benzoic acid
@<TRIPOS>ATOM
      1 C1         -2.0685   -9.2482    1.0714 C.3       1 <0>        -0.1693
      2 C2         -2.3209   -7.7630    1.0309 C.2       1 <0>         0.5063
      3 O1         -1.5819   -7.0059    1.6239 O.2       1 <0>        -0.5209
      4 N1         -3.3680   -7.2761    0.3359 N.am      1 <0>        -0.6844
      5 C3         -3.5438   -5.8932    0.2126 C.ar      1 <0>         0.1544
      6 C4         -2.4391   -5.0587    0.1365 C.ar      1 <0>        -0.0824
      7 C5         -2.6153   -3.6802    0.0136 C.ar      1 <0>        -0.0848
      8 C6         -3.9035   -3.1459   -0.0264 C.ar      1 <0>        -0.0994
      9 C7         -5.0036   -3.9870    0.0445 C.ar      1 <0>         0.1657
     10 C8         -4.8243   -5.3584    0.1662 C.ar      1 <0>        -0.1564
     11 N2         -6.2962   -3.4524   -0.0014 N.am      1 <0>        -0.6913
     12 C9         -6.5442   -2.3510   -0.7375 C.2       1 <0>         0.4949
     13 O2         -5.6715   -1.8783   -1.4346 O.2       1 <0>        -0.4883
     14 C10        -7.9059   -1.7067   -0.6943 C.3       1 <0>        -0.1714
     15 C11        -1.4400   -2.7873   -0.0678 C.2       1 <0>         0.5541
     16 O3         -0.3183   -3.2539   -0.0278 O.2       1 <0>        -0.5371
     17 N3         -1.6121   -1.4558   -0.1865 N.am      1 <0>        -0.6492
     18 C12        -0.5102   -0.6249   -0.3651 C.ar      1 <0>         0.1792
     19 C13         0.7049   -0.9397    0.2293 C.ar      1 <0>        -0.1467
     20 C14         1.7965   -0.1144    0.0504 C.ar      1 <0>        -0.1070
     21 C15         1.6907    1.0319   -0.7212 C.ar      1 <0>        -0.1597
     22 C16         0.4936    1.3606   -1.3188 C.ar      1 <0>        -0.0620
     23 C17        -0.6209    0.5351   -1.1472 C.ar      1 <0>        -0.1472
     24 C18        -1.9029    0.8775   -1.7884 C.2       1 <0>         0.4932
     25 O4         -2.8398    0.1065   -1.7232 O.co2     1 <0>        -0.6190
     26 O5         -2.0361    2.0456   -2.4470 O.co2     1 <0>        -0.7505
     27 H1         -2.8371   -9.7670    0.4796 H         1 <0>         0.0776
     28 H2         -2.1092   -9.5987    2.1133 H         1 <0>         0.0965
     29 H3         -1.0750   -9.4629    0.6509 H         1 <0>         0.0985
     30 H4         -4.0844   -7.9657   -0.1344 H         1 <0>         0.4326
     31 H5         -1.4433   -5.4754    0.1719 H         1 <0>         0.1466
     32 H6         -4.0437   -2.0789   -0.1170 H         1 <0>         0.1481
     33 H7         -5.6830   -6.0108    0.2253 H         1 <0>         0.1303
     34 H8         -7.1098   -3.9312    0.5633 H         1 <0>         0.4301
     35 H9         -7.9165   -0.8273   -1.3550 H         1 <0>         0.0981
     36 H10        -8.1310   -1.3940    0.3360 H         1 <0>         0.0894
     37 H11        -8.6640   -2.4285   -1.0324 H         1 <0>         0.0864
     38 H12        -2.6236   -1.0259   -0.1422 H         1 <0>         0.4475
     39 H13         0.7957   -1.8313    0.8318 H         1 <0>         0.1362
     40 H14         2.7393   -0.3638    0.5145 H         1 <0>         0.1154
     41 H15         2.5512    1.6706   -0.8551 H         1 <0>         0.1148
     42 H16         0.4168    2.2549   -1.9194 H         1 <0>         0.1312
@<TRIPOS>BOND
     1    1    2 1
     2    1   27 1
     3    1   28 1
     4    1   29 1
     5    2    3 2
     6    2    4 am
     7    4    5 1
     8    4   30 1
     9    5   10 ar
    10    5    6 ar
    11    6    7 ar
    12    6   31 1
    13    7    8 ar
    14    7   15 1
    15    8    9 ar
    16    8   32 1
    17    9   10 ar
    18    9   11 1
    19   10   33 1
    20   11   12 am
    21   11   34 1
    22   12   13 2
    23   12   14 1
    24   14   35 1
    25   14   36 1
    26   14   37 1
    27   15   16 2
    28   15   17 am
    29   17   18 1
    30   17   38 1
    31   18   23 ar
    32   18   19 ar
    33   19   20 ar
    34   19   39 1
    35   20   21 ar
    36   20   40 1
    37   21   22 ar
    38   21   41 1
    39   22   23 ar
    40   22   42 1
    41   23   24 1
    42   24   25 2
    43   24   26 1
@<TRIPOS>MOLECULE
ZINC44887259
   29    30     0     0     0
SMALL
USER_CHARGES

@<TRIPOS>ATOM
      1 C1         -0.4316    1.5953    0.7698 C.3       1 <0>        -0.1488
      2 C2         -0.0159    0.2036    0.2889 C.3       1 <0>         0.2714
      3 H1          0.6108    0.2978   -0.5980 H         1 <0>         0.0902
      4 C3         -1.2457   -0.5996   -0.0479 C.2       1 <0>         0.0444
      5 N1         -1.6926   -0.8887   -1.2614 N.2       1 <0>        -0.3797
      6 N2         -2.7653   -1.5910   -1.1245 N.2       1 <0>        -0.1967
      7 N3         -3.0045   -1.7510    0.1305 N.2       1 <0>        -0.1982
      8 N4         -2.0850   -1.1576    0.8123 N.2       1 <0>        -0.3760
      9 N5          0.7355   -0.4748    1.3479 N.pl3     1 <0>        -1.0921
     10 S1          2.2883   -0.9782    1.0692 S.o2      1 <0>         2.6875
     11 O1          2.7545   -1.5489    2.2841 O.2       1 <0>        -0.9527
     12 O2          2.2674   -1.7017   -0.1537 O.2       1 <0>        -0.9543
     13 C4          3.2603    0.4637    0.7846 C.ar      1 <0>        -0.7087
     14 C5          3.8538    0.6635   -0.4484 C.ar      1 <0>         0.0343
     15 C6          4.6165    1.7921   -0.6747 C.ar      1 <0>        -0.2045
     16 C7          4.7874    2.7282    0.3377 C.ar      1 <0>         0.2676
     17 C8          4.1900    2.5256    1.5748 C.ar      1 <0>        -0.1902
     18 C9          3.4234    1.3964    1.7934 C.ar      1 <0>         0.0514
     19 Br1         2.6029    1.1226    3.4750 Br        1 <0>        -0.0199
     20 N6          5.5587    3.8705    0.1117 N.pl3     1 <0>        -0.8653
     21 H2          0.4579    2.1763    1.0135 H         1 <0>         0.0539
     22 H3         -0.9906    2.1000   -0.0181 H         1 <0>         0.0647
     23 H4         -1.0582    1.5011    1.6567 H         1 <0>         0.0662
     24 H5          0.3234   -0.6290    2.2124 H         1 <0>         0.4226
     25 H6          3.7208   -0.0643   -1.2352 H         1 <0>         0.1526
     26 H7          5.0802    1.9469   -1.6378 H         1 <0>         0.1358
     27 H8          4.3211    3.2511    2.3640 H         1 <0>         0.1375
     28 H9          5.9758    4.0109   -0.7527 H         1 <0>         0.4041
     29 H10         5.6773    4.5234    0.8192 H         1 <0>         0.4028
@<TRIPOS>BOND
     1    1    2 1
     2    1   21 1
     3    1   22 1
     4    1   23 1
     5    2    3 1
     6    2    4 1
     7    2    9 1
     8    4    5 1
     9    4    8 2
    10    5    6 1
    11    6    7 2
    12    7    8 1
    13    9   10 1
    14    9   24 1
    15   10   11 2
    16   10   12 2
    17   10   13 1
    18   13   18 ar
    19   13   14 ar
    20   14   15 ar
    21   14   25 1
    22   15   16 ar
    23   15   26 1
    24   16   17 ar
    25   16   20 1
    26   17   18 ar
    27   17   27 1
    28   18   19 1
    29   20   28 1
    30   20   29 1
@<TRIPOS>MOLECULE
ZINC59795109
   33    35     0     0     0
SMALL
USER_CHARGES

@<TRIPOS>ATOM
      1 C1         -0.0169    1.3916    0.0097 C.ar      1 <0>        -0.0667
      2 C2          1.1698    2.0947    0.0021 C.ar      1 <0>        -0.1115
      3 C3          2.3782    1.4187   -0.0135 C.ar      1 <0>        -0.0264
      4 C4          2.4034    0.0342   -0.0212 C.ar      1 <0>        -0.1121
      5 C5          1.2233   -0.6799   -0.0137 C.ar      1 <0>        -0.0797
      6 C6          0.0021   -0.0041    0.0020 C.ar      1 <0>        -0.0004
      7 C7         -1.2663   -0.7635    0.0105 C.2       1 <0>         0.2302
      8 N1         -2.4575   -0.2896    0.2926 N.2       1 <0>        -0.2614
      9 N2         -3.3342   -1.2249    0.2033 N.2       1 <0>        -0.2871
     10 C8         -2.7562   -2.3539   -0.1415 C.2       1 <0>         0.1249
     11 N3         -1.4217   -2.0990   -0.2815 N.pl3     1 <0>        -0.3052
     12 N4         -0.4447   -2.9858   -0.6348 N.3       1 <0>        -0.5827
     13 S1         -3.5551   -3.9054   -0.3845 S.3       1 <0>         0.0601
     14 C9         -5.3036   -3.5557   -0.0513 C.3       1 <0>        -0.0562
     15 C10        -6.1102   -4.8166   -0.2262 C.2       1 <0>         0.4387
     16 O1         -7.4427   -4.7965   -0.0292 O.3       1 <0>        -0.6500
     17 N5         -5.5192   -5.9255   -0.5677 N.2       1 <0>        -0.6581
     18 C11        -6.2491   -7.0664   -0.7258 C.2       1 <0>         0.5189
     19 N6         -7.5540   -7.1844   -0.5652 N.2       1 <0>        -0.5603
     20 H1         -4.8422   -8.5066   -1.2715 H         1 <0>         0.4243
     21 C12        -7.9234   -8.4411   -0.8020 C.2       1 <0>         0.1928
     22 N7         -6.8700   -9.1480   -1.1168 N.2       1 <0>        -0.3742
     23 N8         -5.7662   -8.2806   -1.0817 N.pl3     1 <0>        -0.5141
     24 Cl1         3.8676    2.3105   -0.0241 Cl        1 <0>        -0.0709
     25 H2         -0.9587    1.9199    0.0260 H         1 <0>         0.1457
     26 H3          1.1564    3.1746    0.0081 H         1 <0>         0.1397
     27 H4          3.3489   -0.4876   -0.0334 H         1 <0>         0.1378
     28 H5          1.2441   -1.7597   -0.0205 H         1 <0>         0.1459
     29 H6         -0.0521   -3.4345    0.1791 H         1 <0>         0.3637
     30 H7         -0.7955   -3.6682   -1.2901 H         1 <0>         0.3809
     31 H8         -5.4132   -3.1930    0.9707 H         1 <0>         0.1095
     32 H9         -5.6612   -2.7963   -0.7467 H         1 <0>         0.1098
     33 H10        -8.9340   -8.8174   -0.7430 H         1 <0>         0.1943
@<TRIPOS>BOND
     1    1    6 ar
     2    1    2 ar
     3    1   25 1
     4    2    3 ar
     5    2   26 1
     6    3    4 ar
     7    3   24 1
     8    4    5 ar
     9    4   27 1
    10    5    6 ar
    11    5   28 1
    12    6    7 1
    13    7   11 1
    14    7    8 2
    15    8    9 1
    16    9   10 2
    17   10   11 1
    18   10   13 1
    19   11   12 1
    20   12   29 1
    21   12   30 1
    22   13   14 1
    23   14   15 1
    24   14   31 1
    25   14   32 1
    26   15   16 1
    27   15   17 2
    28   17   18 1
    29   18   19 2
    30   18   23 1
    31   19   21 1
    32   20   23 1
    33   21   33 1
    34   21   22 2
    35   22   23 1
@<TRIPOS>MOLECULE
ZINC06214355
   43    44     0     0     0
SMALL
USER_CHARGES

@<TRIPOS>ATOM
      1 C1         -0.0278    1.5036   -0.0251 C.3       1 <0>        -0.1454
      2 C2         -0.0019   -0.0261   -0.0367 C.3       1 <0>        -0.0897
      3 C3         -1.4355   -0.5605   -0.0360 C.3       1 <0>        -0.1471
      4 C4          0.7238   -0.5144   -1.2921 C.3       1 <0>        -0.0246
      5 C5          2.1691   -0.0916   -1.2333 C.2       1 <0>         0.2437
      6 N1          2.6586    1.0557   -1.7045 N.2       1 <0>        -0.5370
      7 C6          3.9566    1.1054   -1.4903 C.2       1 <0>         0.2437
      8 N2          4.3166   -0.0367   -0.8656 N.pl3     1 <0>        -0.4596
      9 H1          5.2091   -0.2866   -0.5794 H         1 <0>         0.4464
     10 N3          3.1408   -0.7880   -0.7078 N.2       1 <0>        -0.3015
     11 S1          5.0327    2.4263   -1.9396 S.3       1 <0>         0.0878
     12 C7          3.9369    3.6347   -2.7330 C.3       1 <0>        -0.1455
     13 C8          4.7417    4.8311   -3.1711 C.2       1 <0>         0.5381
     14 O1          5.9370    4.8651   -2.9681 O.2       1 <0>        -0.4954
     15 N4          4.1334    5.8631   -3.7885 N.am      1 <0>        -0.6684
     16 C9          4.8613    7.0145   -4.1085 C.ar      1 <0>         0.2035
     17 C10         4.2560    8.2624   -4.0384 C.ar      1 <0>        -0.1631
     18 C11         4.9773    9.3969   -4.3549 C.ar      1 <0>         0.0024
     19 C12         6.3008    9.2912   -4.7413 C.ar      1 <0>        -0.6904
     20 C13         6.9063    8.0500   -4.8125 C.ar      1 <0>         0.0025
     21 C14         6.1923    6.9122   -4.4913 C.ar      1 <0>        -0.1429
     22 S2          7.2175   10.7410   -5.1443 S.o2      1 <0>         2.7033
     23 O2          8.2739   10.3286   -6.0005 O.2       1 <0>        -0.9623
     24 O3          6.2691   11.7282   -5.5254 O.2       1 <0>        -0.9632
     25 N5          7.9238   11.2781   -3.7461 N.pl3     1 <0>        -1.2501
     26 H2          0.9935    1.8843   -0.0256 H         1 <0>         0.0551
     27 H3         -0.5507    1.8648   -0.9107 H         1 <0>         0.0576
     28 H4         -0.5448    1.8514    0.8692 H         1 <0>         0.0530
     29 H5          0.5210   -0.3874    0.8488 H         1 <0>         0.0717
     30 H6         -1.9584   -0.1993   -0.9216 H         1 <0>         0.0582
     31 H7         -1.4170   -1.6504   -0.0443 H         1 <0>         0.0576
     32 H8         -1.9525   -0.2127    0.8583 H         1 <0>         0.0591
     33 H9          0.6651   -1.6015   -1.3460 H         1 <0>         0.0899
     34 H10         0.2540   -0.0810   -2.1750 H         1 <0>         0.0933
     35 H11         3.4615    3.1788   -3.6014 H         1 <0>         0.1347
     36 H12         3.1716    3.9514   -2.0243 H         1 <0>         0.1345
     37 H13         3.1909    5.8078   -4.0110 H         1 <0>         0.4209
     38 H14         3.2223    8.3456   -3.7370 H         1 <0>         0.1404
     39 H15         4.5070   10.3676   -4.3009 H         1 <0>         0.1496
     40 H16         7.9401    7.9707   -5.1150 H         1 <0>         0.1488
     41 H17         6.6673    5.9436   -4.5422 H         1 <0>         0.1518
     42 H18         7.7841   10.7961   -2.9159 H         1 <0>         0.4171
     43 H19         8.4772   12.0746   -3.7572 H         1 <0>         0.4216
@<TRIPOS>BOND
     1    1    2 1
     2    1   26 1
     3    1   27 1
     4    1   28 1
     5    2    3 1
     6    2    4 1
     7    2   29 1
     8    3   30 1
     9    3   31 1
    10    3   32 1
    11    4    5 1
    12    4   33 1
    13    4   34 1
    14    5   10 2
    15    5    6 1
    16    6    7 2
    17    7    8 1
    18    7   11 1
    19    8    9 1
    20    8   10 1
    21   11   12 1
    22   12   13 1
    23   12   35 1
    24   12   36 1
    25   13   14 2
    26   13   15 am
    27   15   16 1
    28   15   37 1
    29   16   21 ar
    30   16   17 ar
    31   17   18 ar
    32   17   38 1
    33   18   19 ar
    34   18   39 1
    35   19   20 ar
    36   19   22 1
    37   20   21 ar
    38   20   40 1
    39   21   41 1
    40   22   23 2
    41   22   24 2
    42   22   25 1
    43   25   42 1
    44   25   43 1
@<TRIPOS>MOLECULE
ZINC67124523
   45    45     0     0     0
SMALL
USER_CHARGES

@<TRIPOS>ATOM
      1 C1         -0.0187    1.5258    0.0104 C.3       1 <0>        -0.1526
      2 C2          0.0021   -0.0041    0.0020 C.3       1 <0>         0.0575
      3 O1         -1.3386   -0.4987    0.0122 O.3       1 <0>        -0.3899
      4 C3         -1.4321   -1.9246    0.0054 C.3       1 <0>         0.0673
      5 C4         -2.9048   -2.3392    0.0172 C.3       1 <0>        -0.1343
      6 C5         -3.0049   -3.8659    0.0100 C.3       1 <0>         0.1389
      7 N1         -4.4150   -4.2629    0.0213 N.am      1 <0>        -0.7385
      8 C6         -4.7475   -5.5690    0.0175 C.2       1 <0>         0.7208
      9 O2         -3.8770   -6.4178    0.0046 O.2       1 <0>        -0.5763
     10 N2         -6.0448   -5.9342    0.0279 N.am      1 <0>        -0.5128
     11 N3         -7.0477   -4.9561    0.0427 N.pl3     1 <0>        -0.9168
     12 S1         -8.2260   -4.9607   -1.1209 S.o2      1 <0>         2.6992
     13 O3         -9.1605   -3.9541   -0.7566 O.2       1 <0>        -0.9383
     14 O4         -7.5581   -4.9622   -2.3751 O.2       1 <0>        -0.9491
     15 C7         -9.0723   -6.5013   -0.9992 C.ar      1 <0>        -0.7358
     16 C8         -8.6267   -7.5925   -1.7286 C.ar      1 <0>         0.0086
     17 C9         -9.2807   -8.8050   -1.6429 C.ar      1 <0>        -0.2468
     18 C10       -10.3919   -8.9396   -0.8234 C.ar      1 <0>         0.2162
     19 C11       -10.8464   -7.8379   -0.0829 C.ar      1 <0>        -0.1860
     20 C12       -10.1699   -6.6170   -0.1757 C.ar      1 <0>         0.0521
     21 C13       -12.0240   -7.9675    0.7901 C.2       1 <0>         0.5232
     22 O5        -12.4170   -7.0045    1.4341 O.co2     1 <0>        -0.6870
     23 O6        -12.6100   -9.0384    0.8718 O.co2     1 <0>        -0.6653
     24 O7        -11.0360  -10.1299   -0.7389 O.3       1 <0>        -0.2584
     25 C14       -10.5159  -11.2060   -1.5222 C.3       1 <0>         0.0158
     26 H1          1.0039    1.9031    0.0027 H         1 <0>         0.0705
     27 H2         -0.5459    1.8868   -0.8726 H         1 <0>         0.0633
     28 H3         -0.5289    1.8773    0.9072 H         1 <0>         0.0631
     29 H4          0.5123   -0.3556   -0.8948 H         1 <0>         0.0486
     30 H5          0.5293   -0.3651    0.8851 H         1 <0>         0.0484
     31 H6         -0.9516   -2.3160   -0.8913 H         1 <0>         0.0536
     32 H7         -0.9346   -2.3255    0.8885 H         1 <0>         0.0532
     33 H8         -3.3852   -1.9478    0.9140 H         1 <0>         0.0802
     34 H9         -3.4022   -1.9383   -0.8659 H         1 <0>         0.0811
     35 H10        -2.5244   -4.2573   -0.8867 H         1 <0>         0.0721
     36 H11        -2.5074   -4.2668    0.8931 H         1 <0>         0.0716
     37 H12        -5.1094   -3.5857    0.0316 H         1 <0>         0.4004
     38 H13        -6.2840   -6.8742    0.0251 H         1 <0>         0.4343
     39 H14        -7.0520   -4.2763    0.7346 H         1 <0>         0.4220
     40 H15        -7.7623   -7.4932   -2.3685 H         1 <0>         0.1361
     41 H16        -8.9271   -9.6501   -2.2149 H         1 <0>         0.1337
     42 H17       -10.5107   -5.7651    0.3941 H         1 <0>         0.1516
     43 H18       -10.5421  -10.9331   -2.5772 H         1 <0>         0.0523
     44 H19        -9.4870  -11.4079   -1.2245 H         1 <0>         0.0525
     45 H20       -11.1221  -12.0977   -1.3625 H         1 <0>         0.0999
@<TRIPOS>BOND
     1    1    2 1
     2    1   26 1
     3    1   27 1
     4    1   28 1
     5    2    3 1
     6    2   29 1
     7    2   30 1
     8    3    4 1
     9    4    5 1
    10    4   31 1
    11    4   32 1
    12    5    6 1
    13    5   33 1
    14    5   34 1
    15    6    7 1
    16    6   35 1
    17    6   36 1
    18    7    8 am
    19    7   37 1
    20    8    9 2
    21    8   10 am
    22   10   11 1
    23   10   38 1
    24   11   12 1
    25   11   39 1
    26   12   13 2
    27   12   14 2
    28   12   15 1
    29   15   20 ar
    30   15   16 ar
    31   16   17 ar
    32   16   40 1
    33   17   18 ar
    34   17   41 1
    35   18   19 ar
    36   18   24 1
    37   19   20 ar
    38   19   21 1
    39   20   42 1
    40   21   22 2
    41   21   23 1
    42   24   25 1
    43   25   43 1
    44   25   44 1
    45   25   45 1
@<TRIPOS>MOLECULE
ZINC01703076
   42    44     0     0     0
SMALL
USER_CHARGES
(2R,5S,6R)-6-[[(2S)-3-hydroxy-3-oxo-2-phenyl-propanoyl]amino]-3,3-dimethyl-7-oxo-4-thia-1-azabicyclo[3.2.0]heptane-2-carboxylic acid
@<TRIPOS>ATOM
      1 C1          5.6647   -6.7838   -5.7813 C.3       1 <0>        -0.1187
      2 C2          4.6738   -7.0582   -4.6483 C.3       1 <0>         0.0313
      3 C3          3.2692   -6.4732   -4.9636 C.3       1 <0>         0.0458
      4 H1          3.3873   -5.5581   -5.5438 H         1 <0>         0.0765
      5 N1          2.5196   -6.1703   -3.7395 N.am      1 <0>        -0.5187
      6 C4          3.3342   -5.8723   -2.5426 C.3       1 <0>         0.1294
      7 H2          3.0930   -6.4071   -1.6240 H         1 <0>         0.1559
      8 S1          5.0609   -6.0499   -3.1474 S.3       1 <0>        -0.2993
      9 C5          2.7579   -4.4681   -2.6865 C.3       1 <0>         0.0870
     10 H3          3.4742   -3.7437   -3.0743 H         1 <0>         0.1453
     11 C6          1.8178   -5.0023   -3.7386 C.2       1 <0>         0.5070
     12 O1          0.8499   -4.5745   -4.3311 O.2       1 <0>        -0.4379
     13 N2          2.0727   -3.9948   -1.4812 N.am      1 <0>        -0.6989
     14 C7          1.9337   -2.6725   -1.2603 C.2       1 <0>         0.5462
     15 O2          2.3760   -1.8745   -2.0593 O.2       1 <0>        -0.5477
     16 C8          1.2289   -2.1857   -0.0205 C.3       1 <0>        -0.1252
     17 H4          0.2063   -2.5630   -0.0120 H         1 <0>         0.1066
     18 C9          1.2084   -0.6789   -0.0132 C.ar      1 <0>        -0.0264
     19 C10         0.0021   -0.0041    0.0020 C.ar      1 <0>        -0.1194
     20 C11        -0.0167    1.3781    0.0096 C.ar      1 <0>        -0.1341
     21 C12         1.1709    2.0855    0.0021 C.ar      1 <0>        -0.1341
     22 C13         2.3773    1.4107   -0.0145 C.ar      1 <0>        -0.1312
     23 C14         2.3961    0.0285   -0.0212 C.ar      1 <0>        -0.0502
     24 C15         1.9583   -2.6841    1.2005 C.2       1 <0>         0.4787
     25 O3          2.4147   -1.8965    1.9950 O.co2     1 <0>        -0.6139
     26 C16         2.4925   -7.4730   -5.7809 C.2       1 <0>         0.4834
     27 O4          1.6239   -8.1332   -5.2617 O.co2     1 <0>        -0.6043
     28 C17         4.6022   -8.5508   -4.3202 C.3       1 <0>        -0.1273
     29 H5          6.6696   -7.0566   -5.4592 H         1 <0>         0.0611
     30 H6          5.3902   -7.3748   -6.6551 H         1 <0>         0.0903
     31 H7          5.6402   -5.7244   -6.0369 H         1 <0>         0.0636
     32 H8          1.7190   -4.6331   -0.8421 H         1 <0>         0.4209
     33 H9         -0.9258   -0.5567    0.0083 H         1 <0>         0.1144
     34 H10        -0.9592    1.9054    0.0170 H         1 <0>         0.1122
     35 H11         1.1563    3.1654    0.0077 H         1 <0>         0.1102
     36 H12         3.3052    1.9634   -0.0205 H         1 <0>         0.1129
     37 H13         3.3386   -0.4987   -0.0324 H         1 <0>         0.1149
     38 H14         3.8392   -8.7196   -3.5602 H         1 <0>         0.0675
     39 H15         4.3474   -9.1091   -5.2210 H         1 <0>         0.0764
     40 H16         5.5689   -8.8872   -3.9455 H         1 <0>         0.0602
     41 O5          2.1009   -4.0030    1.4053 O.co2     1 <0>        -0.7493
     42 O6          2.7656   -7.6302   -7.0857 O.co2     1 <0>        -0.7613
@<TRIPOS>BOND
     1    1    2 1
     2    1   29 1
     3    1   30 1
     4    1   31 1
     5    2    8 1
     6    2    3 1
     7    2   28 1
     8    3    4 1
     9    3    5 1
    10    3   26 1
    11    5   11 am
    12    5    6 1
    13    6    7 1
    14    6    8 1
    15    6    9 1
    16    9   10 1
    17    9   11 1
    18    9   13 1
    19   11   12 2
    20   13   14 am
    21   13   32 1
    22   14   15 2
    23   14   16 1
    24   16   17 1
    25   16   18 1
    26   16   24 1
    27   18   23 ar
    28   18   19 ar
    29   19   20 ar
    30   19   33 1
    31   20   21 ar
    32   20   34 1
    33   21   22 ar
    34   21   35 1
    35   22   23 ar
    36   22   36 1
    37   23   37 1
    38   24   25 2
    39   24   41 1
    40   26   27 2
    41   26   42 1
    42   28   38 1
    43   28   39 1
    44   28   40 1
@<TRIPOS>MOLECULE
ZINC13422790
   36    37     0     0     0
SMALL
USER_CHARGES
4-[(4-carbamoyl-2-nitro-phenyl)methoxy]benzene-1,3-dicarboxylic acid
@<TRIPOS>ATOM
      1 C1         -2.5055    2.7997    2.2637 C.ar      1 <0>        -0.0350
      2 C2         -1.8544    2.3523    1.1325 C.ar      1 <0>        -0.0934
      3 C3         -0.7181    1.5718    1.2479 C.ar      1 <0>         0.0175
      4 C4         -0.2295    1.2307    2.4968 C.ar      1 <0>        -0.0530
      5 C5         -0.8676    1.6762    3.6357 C.ar      1 <0>        -0.0012
      6 C6         -2.0150    2.4637    3.5263 C.ar      1 <0>        -0.1532
      7 C7         -2.7073    2.9401    4.7427 C.2       1 <0>         0.5739
      8 O1         -2.2778    2.6459    5.8410 O.2       1 <0>        -0.5379
      9 N1         -3.8146    3.7006    4.6337 N.am      1 <0>        -0.8474
     10 N2          0.9838    0.3906    2.6109 N.pl3     1 <0>         0.0324
     11 O2          1.4150    0.0895    3.7095 O.2       1 <0>        -0.1659
     12 O3          1.5509    0.0003    1.6061 O.3       1 <0>        -0.1516
     13 C8         -0.0127    1.0858    0.0080 C.3       1 <0>         0.0784
     14 O4         -0.7038    1.5592   -1.1497 O.3       1 <0>        -0.2750
     15 C9         -0.1957    1.2087   -2.3554 C.ar      1 <0>         0.1470
     16 C10         0.9482    0.4229   -2.4256 C.ar      1 <0>        -0.2452
     17 C11         1.4688    0.0639   -3.6477 C.ar      1 <0>        -0.0385
     18 C12         0.8498    0.4877   -4.8302 C.ar      1 <0>        -0.1718
     19 C13        -0.2973    1.2763   -4.7721 C.ar      1 <0>        -0.0039
     20 C14        -0.8281    1.6347   -3.5346 C.ar      1 <0>        -0.1672
     21 C15        -2.0454    2.4635   -3.4636 C.2       1 <0>         0.5031
     22 O5         -2.5032    2.7792   -2.3833 O.co2     1 <0>        -0.6349
     23 C16         1.4126    0.0996   -6.1373 C.2       1 <0>         0.4984
     24 O6          0.8756    0.4673   -7.1633 O.co2     1 <0>        -0.6349
     25 H1         -3.3930    3.4084    2.1723 H         1 <0>         0.1473
     26 H2         -2.2330    2.6116    0.1548 H         1 <0>         0.1905
     27 H3         -0.4831    1.4124    4.6098 H         1 <0>         0.1642
     28 H4         -4.1574    3.9354    3.7571 H         1 <0>         0.4050
     29 H5         -4.2688    4.0132    5.4317 H         1 <0>         0.4070
     30 H6          0.0021   -0.0041    0.0020 H         1 <0>         0.0953
     31 H7          1.0099    1.4631    0.0003 H         1 <0>         0.0950
     32 H8          1.4303    0.0923   -1.5174 H         1 <0>         0.1217
     33 H9          2.3579   -0.5474   -3.6952 H         1 <0>         0.1272
     34 H10        -0.7763    1.6043   -5.6828 H         1 <0>         0.1415
     35 O7         -2.6502    2.8709   -4.5967 O.co2     1 <0>        -0.7625
     36 O8          2.5222   -0.6627   -6.1935 O.co2     1 <0>        -0.7728
@<TRIPOS>BOND
     1    1    6 ar
     2    1    2 ar
     3    1   25 1
     4    2    3 ar
     5    2   26 1
     6    3    4 ar
     7    3   13 1
     8    4    5 ar
     9    4   10 1
    10    5    6 ar
    11    5   27 1
    12    6    7 1
    13    7    8 2
    14    7    9 am
    15    9   28 1
    16    9   29 1
    17   10   11 2
    18   10   12 1
    19   13   14 1
    20   13   30 1
    21   13   31 1
    22   14   15 1
    23   15   20 ar
    24   15   16 ar
    25   16   17 ar
    26   16   32 1
    27   17   18 ar
    28   17   33 1
    29   18   19 ar
    30   18   23 1
    31   19   20 ar
    32   19   34 1
    33   20   21 1
    34   21   22 2
    35   21   35 1
    36   23   24 2
    37   23   36 1
@<TRIPOS>MOLECULE
ZINC31156748
   45    45     0     0     0
SMALL
USER_CHARGES

@<TRIPOS>ATOM
      1 C1         -0.0157    1.3058    0.0092 C.2       1 <0>        -0.2038
      2 C2          0.0021   -0.0041    0.0020 C.2       1 <0>        -0.1477
      3 C3          1.3172   -0.7397   -0.0145 C.3       1 <0>        -0.0973
      4 C4          1.3696   -1.7171    1.1615 C.3       1 <0>        -0.1157
      5 C5          2.7049   -2.4640    1.1447 C.3       1 <0>        -0.1197
      6 C6          2.7573   -3.4414    2.3206 C.3       1 <0>        -0.1204
      7 C7          4.0925   -4.1883    2.3039 C.3       1 <0>        -0.1173
      8 C8          4.1449   -5.1657    3.4798 C.3       1 <0>        -0.1153
      9 C9          5.4801   -5.9125    3.4631 C.3       1 <0>        -0.1276
     10 C10         5.5326   -6.8899    4.6390 C.3       1 <0>        -0.1005
     11 C11         6.8678   -7.6368    4.6223 C.3       1 <0>        -0.1240
     12 H1          7.6994   -6.9323    4.6056 H         1 <0>         0.1072
     13 C12         6.9395   -8.5768    3.4287 C.2       1 <0>         0.4931
     14 O1          6.4860   -8.3850    2.3254 O.2       1 <0>        -0.4740
     15 O2          7.6151   -9.6726    3.8521 O.3       1 <0>        -0.3312
     16 C13         7.1167   -9.9729    5.1738 C.3       1 <0>        -0.0019
     17 H2          6.1474  -10.4678    5.1139 H         1 <0>         0.0891
     18 C14         6.9786   -8.5803    5.8439 C.3       1 <0>         0.0586
     19 C15         5.7320   -8.5121    6.6879 C.2       1 <0>         0.5046
     20 O3          4.6523   -8.8092    6.2057 O.co2     1 <0>        -0.6906
     21 O4          5.8032   -8.1599    7.8530 O.co2     1 <0>        -0.6815
     22 O5          8.1372   -8.2709    6.6210 O.3       1 <0>        -0.5488
     23 C16         8.1007  -10.8293    5.9283 C.2       1 <0>         0.5173
     24 O6          9.1741  -11.1125    5.4244 O.co2     1 <0>        -0.6805
     25 O7          7.8233  -11.2390    7.0427 O.co2     1 <0>        -0.6793
     26 H3          0.9122    1.8585    0.0033 H         1 <0>         0.0947
     27 H4         -0.9582    1.8330    0.0166 H         1 <0>         0.0937
     28 H5         -0.9258   -0.5567    0.0079 H         1 <0>         0.1068
     29 H6          1.4134   -1.2911   -0.9498 H         1 <0>         0.0714
     30 H7          2.1349   -0.0241    0.0711 H         1 <0>         0.0652
     31 H8          1.2735   -1.1657    2.0968 H         1 <0>         0.0615
     32 H9          0.5519   -2.4327    1.0758 H         1 <0>         0.0624
     33 H10         2.8010   -3.0154    0.2094 H         1 <0>         0.0606
     34 H11         3.5226   -1.7484    1.2303 H         1 <0>         0.0593
     35 H12         2.6611   -2.8900    3.2560 H         1 <0>         0.0596
     36 H13         1.9396   -4.1570    2.2350 H         1 <0>         0.0609
     37 H14         4.1887   -4.7397    1.3686 H         1 <0>         0.0597
     38 H15         4.9102   -3.4727    2.3895 H         1 <0>         0.0566
     39 H16         4.0488   -4.6143    4.4151 H         1 <0>         0.0571
     40 H17         3.3272   -5.8813    3.3942 H         1 <0>         0.0615
     41 H18         5.5763   -6.4640    2.5278 H         1 <0>         0.0778
     42 H19         6.2979   -5.1969    3.5487 H         1 <0>         0.0485
     43 H20         5.4364   -6.3385    5.5743 H         1 <0>         0.0663
     44 H21         4.7149   -7.6056    4.5534 H         1 <0>         0.0978
     45 H22         8.2515   -8.8346    7.3983 H         1 <0>         0.3854
@<TRIPOS>BOND
     1    1    2 2
     2    1   26 1
     3    1   27 1
     4    2    3 1
     5    2   28 1
     6    3    4 1
     7    3   29 1
     8    3   30 1
     9    4    5 1
    10    4   31 1
    11    4   32 1
    12    5    6 1
    13    5   33 1
    14    5   34 1
    15    6    7 1
    16    6   35 1
    17    6   36 1
    18    7    8 1
    19    7   37 1
    20    7   38 1
    21    8    9 1
    22    8   39 1
    23    8   40 1
    24    9   10 1
    25    9   41 1
    26    9   42 1
    27   10   11 1
    28   10   43 1
    29   10   44 1
    30   11   12 1
    31   11   18 1
    32   11   13 1
    33   13   14 2
    34   13   15 1
    35   15   16 1
    36   16   17 1
    37   16   18 1
    38   16   23 1
    39   18   19 1
    40   18   22 1
    41   19   20 2
    42   19   21 1
    43   22   45 1
    44   23   24 2
    45   23   25 1
@<TRIPOS>MOLECULE
ZINC54670678
   39    42     0     0     0
SMALL
USER_CHARGES

@<TRIPOS>ATOM
      1 C1         -0.7819    0.9453   -0.3138 C.2       1 <0>        -0.4059
      2 C2         -0.4378   -0.3322   -0.0912 C.2       1 <0>         0.2516
      3 C3         -1.4381   -1.3304    0.3262 C.2       1 <0>        -0.4807
      4 C4         -1.0910   -2.6360    0.3336 C.2       1 <0>         0.4660
      5 O1         -2.0034   -3.5739    0.6822 O.3       1 <0>        -0.7148
      6 N1          0.1887   -3.0182   -0.0127 N.pl3     1 <0>        -0.5860
      7 C5          1.0977   -2.1018   -0.4746 C.2       1 <0>         0.6438
      8 N2          0.8886   -0.7676   -0.2536 N.pl3     1 <0>        -0.6541
      9 N3          2.1399   -2.5084   -1.1693 N.2       1 <0>        -0.6628
     10 C6          2.3048   -3.8097   -1.4635 C.2       1 <0>         0.5734
     11 N4          1.5853   -4.7424   -0.9014 N.2       1 <0>        -0.7012
     12 C7          0.6129   -4.4147    0.1447 C.3       1 <0>         0.3806
     13 H1         -0.2530   -5.0707    0.0554 H         1 <0>         0.1056
     14 C8          1.2482   -4.5984    1.4989 C.ar      1 <0>        -0.1321
     15 C9          2.2448   -5.5446    1.6842 C.ar      1 <0>        -0.0428
     16 C10         2.8005   -5.6789    2.9472 C.ar      1 <0>        -0.1894
     17 C11         2.3459   -4.8709    3.9724 C.ar      1 <0>         0.0716
     18 N5          1.3958   -3.9817    3.7596 N.ar      1 <0>        -0.4949
     19 C12         0.8488   -3.8223    2.5701 C.ar      1 <0>         0.1125
     20 N6          3.2649   -4.1708   -2.3894 N.2       1 <0>        -0.6766
     21 C13         4.2971   -3.2831   -2.7087 C.ar      1 <0>         0.2300
     22 C14         4.7175   -2.3411   -1.7787 C.ar      1 <0>        -0.1894
     23 C15         5.7372   -1.4658   -2.0972 C.ar      1 <0>        -0.0992
     24 C16         6.3393   -1.5264   -3.3407 C.ar      1 <0>        -0.2388
     25 C17         5.9231   -2.4631   -4.2689 C.ar      1 <0>        -0.0952
     26 C18         4.9081   -3.3453   -3.9545 C.ar      1 <0>        -0.1997
     27 H2         -0.0338    1.6600   -0.6236 H         1 <0>         0.0729
     28 H3         -1.8079    1.2581   -0.1874 H         1 <0>         0.0942
     29 H4         -2.4308   -1.0238    0.6212 H         1 <0>         0.1165
     30 H5          2.5799   -6.1625    0.8643 H         1 <0>         0.1436
     31 H6          3.5785   -6.4058    3.1278 H         1 <0>         0.1240
     32 H7          2.7736   -4.9692    4.9592 H         1 <0>         0.1424
     33 H8          0.0766   -3.0799    2.4329 H         1 <0>         0.1531
     34 H9          4.2473   -2.2928   -0.8076 H         1 <0>         0.1082
     35 H10         6.0646   -0.7331   -1.3745 H         1 <0>         0.0863
     36 H11         7.1360   -0.8403   -3.5875 H         1 <0>         0.0862
     37 H12         6.3951   -2.5076   -5.2393 H         1 <0>         0.0903
     38 H13         4.5868   -4.0798   -4.6781 H         1 <0>         0.0969
     39 H14         1.6311   -0.1451   -0.2079 H         1 <0>         0.4138
@<TRIPOS>BOND
     1    1    2 2
     2    1   27 1
     3    1   28 1
     4    2    8 1
     5    2    3 1
     6    3    4 2
     7    3   29 1
     8    4    5 1
     9    4    6 1
    10    6   12 1
    11    6    7 1
    12    7    8 1
    13    7    9 2
    14    8   39 1
    15    9   10 1
    16   10   11 2
    17   10   20 1
    18   11   12 1
    19   12   13 1
    20   12   14 1
    21   14   19 ar
    22   14   15 ar
    23   15   16 ar
    24   15   30 1
    25   16   17 ar
    26   16   31 1
    27   17   18 ar
    28   17   32 1
    29   18   19 ar
    30   19   33 1
    31   20   21 1
    32   21   26 ar
    33   21   22 ar
    34   22   23 ar
    35   22   34 1
    36   23   24 ar
    37   23   35 1
    38   24   25 ar
    39   24   36 1
    40   25   26 ar
    41   25   37 1
    42   26   38 1
@<TRIPOS>MOLECULE
ZINC66813839
   28    29     0     0     0
SMALL
USER_CHARGES

@<TRIPOS>ATOM
      1 C1         -0.0163    1.3480    0.0095 C.2       1 <0>        -0.1250
      2 C2          1.1882    2.0666    0.0018 C.2       1 <0>        -0.2243
      3 C3          2.3734    1.3840   -0.0132 C.2       1 <0>         0.2001
      4 C4          2.3551   -0.0281   -0.0206 C.2       1 <0>         0.4616
      5 N1          1.1795   -0.6850   -0.0129 N.am      1 <0>        -0.5973
      6 C5          0.0021   -0.0041    0.0020 C.2       1 <0>        -0.0401
      7 O1          3.4039   -0.6527   -0.0344 O.2       1 <0>        -0.5528
      8 N2          3.5903    2.0771   -0.0216 N.2       1 <0>        -1.0606
      9 S1          5.0194    1.2407   -0.0397 S.o2      1 <0>         2.6422
     10 O2          5.1038    0.5538    1.2014 O.2       1 <0>        -1.0133
     11 O3          5.0795    0.5664   -1.2891 O.2       1 <0>        -1.0055
     12 C6          6.3192    2.4302   -0.0464 C.ar      1 <0>        -0.6376
     13 C7          7.1815    2.5127    1.0264 C.ar      1 <0>         0.0190
     14 C8          8.2120    3.4565    1.0202 C.ar      1 <0>        -0.1470
     15 C9          8.3619    4.3118   -0.0752 C.ar      1 <0>        -0.0317
     16 C10         7.4926    4.2192   -1.1422 C.ar      1 <0>        -0.0684
     17 C11         6.4757    3.2763   -1.1316 C.ar      1 <0>         0.0601
     18 Cl1         5.3903    3.1606   -2.4814 Cl        1 <0>        -0.0354
     19 Cl2         7.6763    5.2801   -2.5040 Cl        1 <0>        -0.0769
     20 C12         9.1372    3.5500    2.1646 C.2       1 <0>         0.5290
     21 O4          9.0035    2.8007    3.1219 O.co2     1 <0>        -0.6761
     22 O5         10.0383    4.3770    2.1565 O.co2     1 <0>        -0.6883
     23 H1         -0.9589    1.8748    0.0258 H         1 <0>         0.1181
     24 H2          1.1799    3.1465    0.0074 H         1 <0>         0.1158
     25 H3         -0.9297   -0.5501    0.0080 H         1 <0>         0.1341
     26 H4          7.0604    1.8494    1.8700 H         1 <0>         0.1562
     27 H5          9.1561    5.0435   -0.0859 H         1 <0>         0.1469
     28 H6          1.1722   -1.6550   -0.0181 H         1 <0>         0.3971
@<TRIPOS>BOND
     1    1    6 2
     2    1    2 1
     3    1   23 1
     4    2    3 2
     5    2   24 1
     6    3    4 1
     7    3    8 1
     8    4    5 am
     9    4    7 2
    10    5    6 1
    11    5   28 1
    12    6   25 1
    13    8    9 1
    14    9   10 2
    15    9   11 2
    16    9   12 1
    17   12   17 ar
    18   12   13 ar
    19   13   14 ar
    20   13   26 1
    21   14   15 ar
    22   14   20 1
    23   15   16 ar
    24   15   27 1
    25   16   17 ar
    26   16   19 1
    27   17   18 1
    28   20   21 2
    29   20   22 1
@<TRIPOS>MOLECULE
ZINC00457669
   37    38     0     0     0
SMALL
USER_CHARGES
(5R)-2-amino-1-cyano-4-methylsulfanyl-3-azaspiro[5.5]undeca-1,3-diene-5-carboxamide
@<TRIPOS>ATOM
      1 C1         -5.6361    4.1406    3.0100 C.3       1 <0>        -0.1499
      2 S1         -4.9604    2.8582    1.9260 S.3       1 <0>         0.0164
      3 C2         -3.7746    3.7686    1.0918 C.2       1 <0>         0.1963
      4 N1         -3.6231    5.0331    1.3732 N.2       1 <0>        -0.5187
      5 C3         -2.6795    5.7865    0.7830 C.2       1 <0>         0.4590
      6 C4         -1.6279    5.2014    0.1096 C.2       1 <0>        -0.2602
      7 C5         -1.5190    3.6976    0.0628 C.3       1 <0>         0.0553
      8 C6         -2.9254    3.0947    0.0463 C.3       1 <0>        -0.0997
      9 H1         -2.8808    2.0170    0.2619 H         1 <0>         0.1227
     10 C7         -3.5440    3.3007   -1.3123 C.2       1 <0>         0.5362
     11 O1         -3.7239    4.4241   -1.7327 O.2       1 <0>        -0.5271
     12 N2         -3.8974    2.2367   -2.0602 N.am      1 <0>        -0.8722
     13 C8         -0.7677    3.2790   -1.2019 C.3       1 <0>        -0.1116
     14 C9         -0.6597    1.7535   -1.2495 C.3       1 <0>        -0.1202
     15 C10         0.0980    1.2574   -0.0164 C.3       1 <0>        -0.1230
     16 C11        -0.6550    1.6756    1.2481 C.3       1 <0>        -0.1238
     17 C12        -0.7632    3.2012    1.2961 C.3       1 <0>        -0.1106
     18 C13        -0.6457    6.0159   -0.5404 C.1       1 <0>         0.2798
     19 N3          0.1335    6.6620   -1.0561 N.1       1 <0>        -0.4681
     20 N4         -2.7642    7.1621    0.8512 N.pl3     1 <0>        -0.8569
     21 H2         -6.4341    3.7108    3.6332 H         1 <0>         0.1092
     22 H3         -6.0477    4.9576    2.3991 H         1 <0>         0.0962
     23 H4         -4.8371    4.5327    3.6564 H         1 <0>         0.0976
     24 H5         -4.3489    2.3871   -3.0519 H         1 <0>         0.4267
     25 H6         -3.7343    1.2179   -1.6789 H         1 <0>         0.4192
     26 H7         -1.3136    3.6358   -2.0877 H         1 <0>         0.0691
     27 H8          0.2409    3.7179   -1.1914 H         1 <0>         0.0710
     28 H9         -1.6683    1.3147   -1.2613 H         1 <0>         0.0602
     29 H10        -0.1182    1.4524   -2.1584 H         1 <0>         0.0676
     30 H11         0.1760    0.1607   -0.0506 H         1 <0>         0.0662
     31 H12         1.1065    1.6965   -0.0045 H         1 <0>         0.0649
     32 H13        -1.6635    1.2366    1.2363 H         1 <0>         0.0643
     33 H14        -0.1100    1.3185    2.1344 H         1 <0>         0.0698
     34 H15         0.2453    3.6401    1.3093 H         1 <0>         0.0739
     35 H16        -1.3059    3.5019    2.2044 H         1 <0>         0.0632
     36 H17        -1.9955    7.7850    0.3705 H         1 <0>         0.4319
     37 H18        -3.6004    7.6358    1.3863 H         1 <0>         0.4253
@<TRIPOS>BOND
     1    1    2 1
     2    1   21 1
     3    1   22 1
     4    1   23 1
     5    2    3 1
     6    3    8 1
     7    3    4 2
     8    4    5 1
     9    5    6 2
    10    5   20 1
    11    6    7 1
    12    6   18 1
    13    7   17 1
    14    7    8 1
    15    7   13 1
    16    8    9 1
    17    8   10 1
    18   10   11 2
    19   10   12 am
    20   12   24 1
    21   12   25 1
    22   13   14 1
    23   13   26 1
    24   13   27 1
    25   14   15 1
    26   14   28 1
    27   14   29 1
    28   15   16 1
    29   15   30 1
    30   15   31 1
    31   16   17 1
    32   16   32 1
    33   16   33 1
    34   17   34 1
    35   17   35 1
    36   18   19 3
    37   20   36 1
    38   20   37 1
@<TRIPOS>MOLECULE
ZINC40166778
   36    37     0     0     0
SMALL
USER_CHARGES

@<TRIPOS>ATOM
      1 C1         -0.0266    1.5286    0.0066 C.3       1 <0>        -0.1700
      2 C2          0.0046   -0.0011    0.0023 C.3       1 <0>         0.2023
      3 C3         -1.4301   -0.5199   -0.0828 C.3       1 <0>        -0.1480
      4 C4         -1.5399   -1.9148    0.5940 C.3       1 <0>        -0.5625
      5 S1         -0.4363   -1.6386    2.0487 S.o2      1 <0>         2.3652
      6 O1          0.2291   -2.8529    2.3678 O.2       1 <0>        -0.9352
      7 O2         -1.1583   -0.9464    3.0582 O.2       1 <0>        -0.9253
      8 C5          0.7587   -0.4832    1.2569 C.3       1 <0>        -0.5874
      9 N1          0.7342   -0.4510   -1.1858 N.am      1 <0>        -0.7395
     10 C6          0.2993   -0.1069   -2.4142 C.2       1 <0>         0.7061
     11 O3         -0.6987    0.5769   -2.5363 O.2       1 <0>        -0.5676
     12 N2          0.9705   -0.5208   -3.5071 N.am      1 <0>        -0.6814
     13 C7          0.4657   -0.2455   -4.7858 C.ar      1 <0>         0.0966
     14 C8          0.6304   -1.1678   -5.8104 C.ar      1 <0>        -0.0937
     15 C9          0.1330   -0.8972   -7.0696 C.ar      1 <0>        -0.1817
     16 C10        -0.5323    0.2977   -7.3113 C.ar      1 <0>         0.2044
     17 C11        -0.6970    1.2202   -6.2862 C.ar      1 <0>        -0.1816
     18 C12        -0.2040    0.9468   -5.0258 C.ar      1 <0>        -0.0660
     19 N3         -1.0361    0.5724   -8.5874 N.pl3     1 <0>        -0.8802
     20 H1          0.9933    1.9128   -0.0040 H         1 <0>         0.0648
     21 H2         -0.5578    1.8836   -0.8766 H         1 <0>         0.0919
     22 H3         -0.5377    1.8790    0.9033 H         1 <0>         0.0731
     23 H4         -2.0969    0.1792    0.4218 H         1 <0>         0.1011
     24 H5         -1.7221   -0.6030   -1.1297 H         1 <0>         0.1229
     25 H6         -2.5628   -2.1258    0.9056 H         1 <0>         0.1440
     26 H7         -1.1540   -2.7021   -0.0536 H         1 <0>         0.1362
     27 H8          1.6733   -1.0069    0.9786 H         1 <0>         0.1470
     28 H9          0.9799    0.3544    1.9184 H         1 <0>         0.1541
     29 H10         1.5304   -0.9965   -1.0883 H         1 <0>         0.3994
     30 H11         1.8029   -1.0091   -3.4091 H         1 <0>         0.4047
     31 H12         1.1481   -2.0969   -5.6225 H         1 <0>         0.1235
     32 H13         0.2615   -1.6145   -7.8667 H         1 <0>         0.1234
     33 H14        -1.2143    2.1495   -6.4739 H         1 <0>         0.1227
     34 H15        -0.3359    1.6621   -4.2275 H         1 <0>         0.1405
     35 H16        -0.9208   -0.0717   -9.3034 H         1 <0>         0.3978
     36 H17        -1.5008    1.4070   -8.7561 H         1 <0>         0.3983
@<TRIPOS>BOND
     1    1    2 1
     2    1   20 1
     3    1   21 1
     4    1   22 1
     5    2    8 1
     6    2    3 1
     7    2    9 1
     8    3    4 1
     9    3   23 1
    10    3   24 1
    11    4    5 1
    12    4   25 1
    13    4   26 1
    14    5    6 2
    15    5    7 2
    16    5    8 1
    17    8   27 1
    18    8   28 1
    19    9   10 am
    20    9   29 1
    21   10   11 2
    22   10   12 am
    23   12   13 1
    24   12   30 1
    25   13   18 ar
    26   13   14 ar
    27   14   15 ar
    28   14   31 1
    29   15   16 ar
    30   15   32 1
    31   16   17 ar
    32   16   19 1
    33   17   18 ar
    34   17   33 1
    35   18   34 1
    36   19   35 1
    37   19   36 1
@<TRIPOS>MOLECULE
ZINC44833084
   33    33     0     0     0
SMALL
USER_CHARGES

@<TRIPOS>ATOM
      1 C1          0.7075   -0.6264    1.4763 C.3       1 <0>        -0.1425
      2 C2         -0.1837    0.3446    2.2532 C.3       1 <0>        -0.1008
      3 H1         -0.0991    1.3413    1.8201 H         1 <0>         0.1176
      4 C3          0.2540    0.3845    3.6947 C.2       1 <0>         0.2992
      5 S1          0.8576   -0.9263    4.3835 S.2       1 <0>        -0.4159
      6 N1          0.1368    1.5249    4.4033 N.pl3     1 <0>        -0.7743
      7 C4         -1.6162   -0.1168    2.1758 C.2       1 <0>         0.5277
      8 O1         -2.2306   -0.3608    3.1928 O.2       1 <0>        -0.5014
      9 N2         -2.2148   -0.2583    0.9766 N.am      1 <0>        -0.6663
     10 C5         -3.5754   -0.5839    0.9070 C.ar      1 <0>         0.1283
     11 C6         -4.0426   -1.4001   -0.1148 C.ar      1 <0>        -0.1201
     12 C7         -5.3835   -1.7210   -0.1834 C.ar      1 <0>        -0.1256
     13 C8         -6.2651   -1.2277    0.7694 C.ar      1 <0>         0.1328
     14 C9         -5.7979   -0.4116    1.7912 C.ar      1 <0>        -0.1009
     15 C10        -4.4561   -0.0953    1.8631 C.ar      1 <0>        -0.0975
     16 N3         -7.6258   -1.5530    0.6995 N.am      1 <0>        -0.6741
     17 C11        -8.5527   -0.6663    1.1129 C.2       1 <0>         0.5098
     18 O2         -8.2162    0.4475    1.4554 O.2       1 <0>        -0.5258
     19 C12       -10.0073   -1.0587    1.1497 C.3       1 <0>        -0.1705
     20 H2          1.7437   -0.2927    1.5322 H         1 <0>         0.0776
     21 H3          0.6229   -1.6231    1.9094 H         1 <0>         0.0947
     22 H4          0.3909   -0.6553    0.4337 H         1 <0>         0.0693
     23 H5         -0.2293    2.3201    3.9854 H         1 <0>         0.3965
     24 H6          0.4186    1.5506    5.3311 H         1 <0>         0.4212
     25 H7         -1.7034   -0.1346    0.1617 H         1 <0>         0.4126
     26 H8         -3.3570   -1.7834   -0.8560 H         1 <0>         0.1324
     27 H9         -5.7469   -2.3555   -0.9783 H         1 <0>         0.1320
     28 H10        -6.4836   -0.0276    2.5320 H         1 <0>         0.1383
     29 H11        -4.0919    0.5355    2.6605 H         1 <0>         0.1342
     30 H12        -7.9009   -2.4165    0.3536 H         1 <0>         0.4124
     31 H13       -10.1145   -2.0885    0.8090 H         1 <0>         0.0792
     32 H14       -10.3811   -0.9727    2.1699 H         1 <0>         0.1004
     33 H15       -10.5783   -0.3987    0.4966 H         1 <0>         0.0995
@<TRIPOS>BOND
     1    1    2 1
     2    1   20 1
     3    1   21 1
     4    1   22 1
     5    2    3 1
     6    2    4 1
     7    2    7 1
     8    4    5 2
     9    4    6 1
    10    6   23 1
    11    6   24 1
    12    7    8 2
    13    7    9 am
    14    9   10 1
    15    9   25 1
    16   10   15 ar
    17   10   11 ar
    18   11   12 ar
    19   11   26 1
    20   12   13 ar
    21   12   27 1
    22   13   14 ar
    23   13   16 1
    24   14   15 ar
    25   14   28 1
    26   15   29 1
    27   16   17 am
    28   16   30 1
    29   17   18 2
    30   17   19 1
    31   19   31 1
    32   19   32 1
    33   19   33 1
@<TRIPOS>MOLECULE
ZINC50397967
   36    36     0     0     0
SMALL
USER_CHARGES

@<TRIPOS>ATOM
      1 C1         -0.0187    1.5258    0.0104 C.3       1 <0>        -0.1536
      2 C2          0.0021   -0.0041    0.0020 C.3       1 <0>        -0.0690
      3 C3          0.7421   -0.5109    1.2415 C.3       1 <0>        -0.1592
      4 C4         -1.4333   -0.5336    0.0129 C.3       1 <0>        -0.0964
      5 H1         -1.9435   -0.1821    0.9097 H         1 <0>         0.1416
      6 C5         -2.1622   -0.0344   -1.2080 C.2       1 <0>         0.2961
      7 S1         -3.4731    0.8663   -1.0439 S.2       1 <0>        -0.4335
      8 N1         -1.7091   -0.3472   -2.4382 N.pl3     1 <0>        -0.7729
      9 C6         -1.4129   -2.0405    0.0046 C.2       1 <0>         0.5275
     10 O1         -0.3545   -2.6325   -0.0087 O.2       1 <0>        -0.5010
     11 N2         -2.5708   -2.7302    0.0119 N.am      1 <0>        -0.7131
     12 C7         -2.5509   -4.1950    0.0039 C.3       1 <0>         0.1367
     13 H2         -1.7096   -4.5424   -0.5957 H         1 <0>         0.1206
     14 C8         -3.8564   -4.7179   -0.6006 C.3       1 <0>        -0.1319
     15 C9         -3.9356   -6.2287   -0.3500 C.3       1 <0>        -0.1343
     16 C10        -4.1004   -6.4680    1.1513 C.3       1 <0>         0.1052
     17 N3         -3.0888   -5.7321    1.8993 N.am      1 <0>        -0.7191
     18 C11        -2.4030   -4.6997    1.4106 C.2       1 <0>         0.5020
     19 O2         -1.6149   -4.1384    2.1418 O.2       1 <0>        -0.5301
     20 H3          1.0039    1.9031    0.0027 H         1 <0>         0.0656
     21 H4         -0.5459    1.8868   -0.8726 H         1 <0>         0.0533
     22 H5         -0.5289    1.8773    0.9072 H         1 <0>         0.0660
     23 H6          0.5123   -0.3556   -0.8948 H         1 <0>         0.0763
     24 H7          0.2319   -0.1594    2.1383 H         1 <0>         0.0542
     25 H8          0.7568   -1.6008    1.2356 H         1 <0>         0.0869
     26 H9          1.7647   -0.1336    1.2338 H         1 <0>         0.0596
     27 H10        -0.9138   -0.8935   -2.5377 H         1 <0>         0.4000
     28 H11        -2.1782   -0.0258   -3.2240 H         1 <0>         0.4214
     29 H12        -3.4173   -2.2567    0.0226 H         1 <0>         0.4075
     30 H13        -4.7042   -4.2225   -0.1274 H         1 <0>         0.0805
     31 H14        -3.8683   -4.5227   -1.6729 H         1 <0>         0.0862
     32 H15        -4.7914   -6.6434   -0.8826 H         1 <0>         0.0950
     33 H16        -3.0193   -6.7056   -0.6979 H         1 <0>         0.0778
     34 H17        -5.0909   -6.1361    1.4625 H         1 <0>         0.0699
     35 H18        -3.9988   -7.5331    1.3597 H         1 <0>         0.0819
     36 H19        -2.9045   -6.0107    2.8100 H         1 <0>         0.4021
@<TRIPOS>BOND
     1    1    2 1
     2    1   20 1
     3    1   21 1
     4    1   22 1
     5    2    3 1
     6    2    4 1
     7    2   23 1
     8    3   24 1
     9    3   25 1
    10    3   26 1
    11    4    5 1
    12    4    6 1
    13    4    9 1
    14    6    7 2
    15    6    8 1
    16    8   27 1
    17    8   28 1
    18    9   10 2
    19    9   11 am
    20   11   12 1
    21   11   29 1
    22   12   13 1
    23   12   18 1
    24   12   14 1
    25   14   15 1
    26   14   30 1
    27   14   31 1
    28   15   16 1
    29   15   32 1
    30   15   33 1
    31   16   17 1
    32   16   34 1
    33   16   35 1
    34   17   18 am
    35   17   36 1
    36   18   19 2
@<TRIPOS>MOLECULE
ZINC62832370
   35    37     0     0     0
SMALL
USER_CHARGES

@<TRIPOS>ATOM
      1 C1         -0.0168    1.3888    0.0097 C.ar      1 <0>        -0.1648
      2 C2          1.1594    2.1052    0.0023 C.ar      1 <0>        -0.0761
      3 C3          2.3803    1.4389   -0.0129 C.ar      1 <0>         0.0305
      4 C4          2.4013    0.0350   -0.0206 C.ar      1 <0>        -0.0096
      5 C5          1.2083   -0.6827   -0.0137 C.ar      1 <0>        -0.1591
      6 C6          0.0021   -0.0041    0.0020 C.ar      1 <0>         0.2020
      7 N1         -1.2008   -0.7186    0.0096 N.pl3     1 <0>        -0.8796
      8 C7          3.8253   -0.3476   -0.0362 C.2       1 <0>        -0.2477
      9 C8          4.5386    0.8150   -0.0368 C.2       1 <0>         0.1207
     10 N2          3.6923    1.8722   -0.0231 N.pl3     1 <0>        -0.5732
     11 H1          3.9681    2.8021   -0.0207 H         1 <0>         0.4202
     12 C9          4.3687   -1.7122   -0.0487 C.2       1 <0>         0.5949
     13 O1          3.6148   -2.6673   -0.0466 O.2       1 <0>        -0.5362
     14 N3          5.7023   -1.9064   -0.0624 N.am      1 <0>        -0.7246
     15 C10         6.2443   -3.2674   -0.0748 C.3       1 <0>         0.1497
     16 H2          5.5945   -3.9208    0.5073 H         1 <0>         0.1134
     17 C11         6.3136   -3.7760   -1.5243 C.3       1 <0>        -0.1457
     18 C12         7.1705   -5.0741   -1.5416 C.3       1 <0>        -0.5694
     19 S1          8.5127   -4.6076   -0.3687 S.o2      1 <0>         2.3775
     20 O2          9.5953   -4.0518   -1.1023 O.2       1 <0>        -0.9313
     21 O3          8.7519   -5.6939    0.5157 O.2       1 <0>        -0.9320
     22 C13         7.6605   -3.2622    0.5495 C.3       1 <0>        -0.5985
     23 H3         -0.9619    1.9113    0.0260 H         1 <0>         0.1271
     24 H4          1.1339    3.1849    0.0079 H         1 <0>         0.1241
     25 H5          1.2240   -1.7626   -0.0196 H         1 <0>         0.1311
     26 H6         -2.0467   -0.2440    0.0202 H         1 <0>         0.3976
     27 H7         -1.1888   -1.6885    0.0043 H         1 <0>         0.3994
     28 H8          5.6164    0.8824   -0.0467 H         1 <0>         0.1764
     29 H9          6.3033   -1.1450   -0.0641 H         1 <0>         0.4010
     30 H10         5.3088   -3.9933   -1.8866 H         1 <0>         0.1081
     31 H11         6.7776   -3.0202   -2.1579 H         1 <0>         0.0918
     32 H12         6.6017   -5.9268   -1.1709 H         1 <0>         0.1430
     33 H13         7.5679   -5.2708   -2.5373 H         1 <0>         0.1449
     34 H14         8.1542   -2.3053    0.3799 H         1 <0>         0.1448
     35 H15         7.6143   -3.4911    1.6142 H         1 <0>         0.1495
@<TRIPOS>BOND
     1    1    6 ar
     2    1    2 ar
     3    1   23 1
     4    2    3 ar
     5    2   24 1
     6    3   10 1
     7    3    4 ar
     8    4    5 ar
     9    4    8 1
    10    5    6 ar
    11    5   25 1
    12    6    7 1
    13    7   26 1
    14    7   27 1
    15    8    9 2
    16    8   12 1
    17    9   10 1
    18    9   28 1
    19   10   11 1
    20   12   13 2
    21   12   14 am
    22   14   15 1
    23   14   29 1
    24   15   16 1
    25   15   22 1
    26   15   17 1
    27   17   18 1
    28   17   30 1
    29   17   31 1
    30   18   19 1
    31   18   32 1
    32   18   33 1
    33   19   20 2
    34   19   21 2
    35   19   22 1
    36   22   34 1
    37   22   35 1
@<TRIPOS>MOLECULE
ZINC40678485
   59    60     0     0     0
SMALL
USER_CHARGES

@<TRIPOS>ATOM
      1 C1          2.8822    1.8086    0.0511 C.3       1 <0>        -0.1584
      2 C2          3.3618    0.3624    0.1902 C.3       1 <0>         0.0561
      3 O1          2.2632   -0.4696    0.5682 O.3       1 <0>        -0.3695
      4 C3          2.6052   -1.8481    0.7257 C.3       1 <0>         0.0775
      5 C4          3.0199   -2.1102    2.1764 C.3       1 <0>        -0.1718
      6 C5          3.3080   -3.6022    2.3571 C.3       1 <0>        -0.0155
      7 N1          2.1025   -4.3785    2.0433 N.4       1 <0>        -0.3872
      8 C6          1.7403   -4.1881    0.6337 C.3       1 <0>        -0.0067
      9 C7          1.3918   -2.7187    0.3867 C.3       1 <0>        -0.1466
     10 C8          2.3605   -5.8030    2.2929 C.3       1 <0>         0.0353
     11 H1          1.5010   -6.3900    1.9692 H         1 <0>         0.1523
     12 C9          3.6009   -6.2412    1.5118 C.3       1 <0>        -0.1482
     13 C10         3.8696   -7.7248    1.7718 C.3       1 <0>        -0.0700
     14 H2          3.0102   -8.3119    1.4480 H         1 <0>         0.0873
     15 C11         4.1042   -7.9461    3.2674 C.3       1 <0>        -0.1312
     16 C12         2.8637   -7.5080    4.0485 C.3       1 <0>        -0.1265
     17 C13         2.5951   -6.0243    3.7886 C.3       1 <0>        -0.1399
     18 H3          3.4545   -5.4373    4.1123 H         1 <0>         0.1201
     19 C14         1.3546   -5.5861    4.5697 C.3       1 <0>        -0.0211
     20 N2          1.6233   -5.6844    6.0106 N.4       1 <0>        -0.6353
     21 C15         5.1100   -8.1630    0.9906 C.3       1 <0>        -0.0609
     22 C16         6.3164   -7.3389    1.4451 C.3       1 <0>        -0.1516
     23 C17         5.3787   -9.6466    1.2506 C.3       1 <0>        -0.1516
     24 C18         4.8754   -7.9416   -0.5050 C.3       1 <0>        -0.1515
     25 H4          2.4784    2.1507    1.0040 H         1 <0>         0.0661
     26 H5          3.7203    2.4432   -0.2371 H         1 <0>         0.0819
     27 H6          2.1064    1.8622   -0.7126 H         1 <0>         0.0690
     28 H7          3.7657    0.0203   -0.7626 H         1 <0>         0.0583
     29 H8          4.1377    0.3087    0.9539 H         1 <0>         0.0530
     30 H9          3.4304   -2.0974    0.0587 H         1 <0>         0.0805
     31 H10         3.9167   -1.5357    2.4080 H         1 <0>         0.1173
     32 H11         2.2127   -1.8118    2.8453 H         1 <0>         0.0957
     33 H12         4.1155   -3.8995    1.6879 H         1 <0>         0.1402
     34 H13         3.6038   -3.7923    3.3888 H         1 <0>         0.1277
     35 H14         2.5811   -4.4729    0.0013 H         1 <0>         0.1373
     36 H15         0.8786   -4.8108    0.3931 H         1 <0>         0.1419
     37 H16         0.5508   -2.4329    1.0185 H         1 <0>         0.0979
     38 H17         1.1249   -2.5791   -0.6609 H         1 <0>         0.1257
     39 H18         3.4338   -6.0835    0.4463 H         1 <0>         0.1036
     40 H19         4.4603   -5.6541    1.8356 H         1 <0>         0.0980
     41 H20         4.2956   -9.0031    3.4526 H         1 <0>         0.0960
     42 H21         4.9636   -7.3591    3.5912 H         1 <0>         0.0807
     43 H22         2.0043   -8.0950    3.7248 H         1 <0>         0.0939
     44 H23         3.0309   -7.6657    5.1140 H         1 <0>         0.0819
     45 H24         1.1105   -4.5548    4.3151 H         1 <0>         0.1239
     46 H25         0.5157   -6.2324    4.3117 H         1 <0>         0.1546
     47 H26         1.8493   -6.6391    6.2462 H         1 <0>         0.4432
     48 H27         2.3999   -5.0862    6.2495 H         1 <0>         0.4396
     49 H28         6.4835   -7.4966    2.5106 H         1 <0>         0.0598
     50 H29         7.2001   -7.6511    0.8886 H         1 <0>         0.0672
     51 H30         6.1250   -6.2820    1.2599 H         1 <0>         0.0504
     52 H31         4.5193  -10.2337    0.9268 H         1 <0>         0.0604
     53 H32         6.2624   -9.9588    0.6941 H         1 <0>         0.0665
     54 H33         5.5458   -9.8043    2.3161 H         1 <0>         0.0599
     55 H34         4.6840   -6.8847   -0.6902 H         1 <0>         0.0513
     56 H35         5.7591   -8.2538   -1.0615 H         1 <0>         0.0678
     57 H36         4.0160   -8.5287   -0.8288 H         1 <0>         0.0609
     58 H37         1.3421   -4.0687    2.6297 H         1 <0>         0.4131
     59 H38         0.8053   -5.3954    6.5257 H         1 <0>         0.4502
@<TRIPOS>BOND
     1    1    2 1
     2    1   25 1
     3    1   26 1
     4    1   27 1
     5    2    3 1
     6    2   28 1
     7    2   29 1
     8    3    4 1
     9    4    9 1
    10    4    5 1
    11    4   30 1
    12    5    6 1
    13    5   31 1
    14    5   32 1
    15    6    7 1
    16    6   33 1
    17    6   34 1
    18    7    8 1
    19    7   10 1
    20    7   58 1
    21    8    9 1
    22    8   35 1
    23    8   36 1
    24    9   37 1
    25    9   38 1
    26   10   11 1
    27   10   17 1
    28   10   12 1
    29   12   13 1
    30   12   39 1
    31   12   40 1
    32   13   14 1
    33   13   15 1
    34   13   21 1
    35   15   16 1
    36   15   41 1
    37   15   42 1
    38   16   17 1
    39   16   43 1
    40   16   44 1
    41   17   18 1
    42   17   19 1
    43   19   20 1
    44   19   45 1
    45   19   46 1
    46   20   47 1
    47   20   48 1
    48   20   59 1
    49   21   22 1
    50   21   23 1
    51   21   24 1
    52   22   49 1
    53   22   50 1
    54   22   51 1
    55   23   52 1
    56   23   53 1
    57   23   54 1
    58   24   55 1
    59   24   56 1
    60   24   57 1
@<TRIPOS>MOLECULE
ZINC48993040
   58    60     0     0     0
SMALL
USER_CHARGES

@<TRIPOS>ATOM
      1 C1          0.1716    1.4183    0.2082 C.3       1 <0>        -0.1495
      2 C2          0.1163   -0.1048    0.0734 C.3       1 <0>        -0.0611
      3 C3          0.8508   -0.7480    1.2513 C.3       1 <0>        -0.1539
      4 C4         -1.3432   -0.5638    0.0703 C.3       1 <0>        -0.1527
      5 C5          0.7860   -0.5255   -1.2364 C.3       1 <0>        -0.0811
      6 H1          0.2627   -0.0672   -2.0756 H         1 <0>         0.0886
      7 C6          0.7306   -2.0486   -1.3712 C.3       1 <0>        -0.1410
      8 C7          1.4003   -2.4693   -2.6809 C.3       1 <0>        -0.1450
      9 C8          2.8598   -2.0103   -2.6779 C.3       1 <0>         0.0382
     10 H2          3.3369   -2.3100   -3.6109 H         1 <0>         0.1424
     11 C9          2.9152   -0.4872   -2.5431 C.3       1 <0>         0.0618
     12 H3          2.3919   -0.0290   -3.3823 H         1 <0>         0.1017
     13 C10         2.2455   -0.0665   -1.2333 C.3       1 <0>        -0.1321
     14 N1          4.3165   -0.0465   -2.5401 N.3       1 <0>        -0.5543
     15 C11         4.4114    1.4061   -2.3375 C.3       1 <0>         0.0238
     16 C12         5.8849    1.8151   -2.2813 C.3       1 <0>        -0.0042
     17 N2          6.5472    1.4341   -3.5358 N.4       1 <0>        -0.3851
     18 C13         6.4656   -0.0218   -3.7120 C.3       1 <0>        -0.0028
     19 C14         4.9969   -0.4461   -3.7801 C.3       1 <0>         0.0087
     20 C15         7.9573    1.8431   -3.4886 C.3       1 <0>         0.0276
     21 C16         8.6160    1.5597   -4.8401 C.3       1 <0>        -0.2178
     22 C17         9.7518    0.5350   -4.8714 C.3       1 <0>        -0.1678
     23 C18        10.0608    2.0247   -5.0332 C.3       1 <0>        -0.1454
     24 N3          3.5651   -2.6279   -1.5469 N.4       1 <0>        -0.6342
     25 H4          1.2114    1.7453    0.2103 H         1 <0>         0.0522
     26 H5         -0.3516    1.8765   -0.6310 H         1 <0>         0.0596
     27 H6         -0.3055    1.7180    1.1412 H         1 <0>         0.0659
     28 H7          0.3737   -0.4483    2.1844 H         1 <0>         0.0680
     29 H8          0.8114   -1.8331    1.1553 H         1 <0>         0.0569
     30 H9          1.8906   -0.4210    1.2535 H         1 <0>         0.0522
     31 H10        -1.8665   -0.1055   -0.7689 H         1 <0>         0.0605
     32 H11        -1.3826   -1.6489   -0.0257 H         1 <0>         0.0597
     33 H12        -1.8203   -0.2641    1.0034 H         1 <0>         0.0654
     34 H13         1.2539   -2.5068   -0.5320 H         1 <0>         0.0656
     35 H14        -0.3091   -2.3756   -1.3733 H         1 <0>         0.1034
     36 H15         1.3609   -3.5544   -2.7769 H         1 <0>         0.1009
     37 H16         0.8771   -2.0110   -3.5201 H         1 <0>         0.1150
     38 H17         2.2849    1.0186   -1.1373 H         1 <0>         0.0983
     39 H18         2.7688   -0.5248   -0.3941 H         1 <0>         0.0763
     40 H19         3.9222    1.9213   -3.1642 H         1 <0>         0.0746
     41 H20         3.9232    1.6753   -1.4009 H         1 <0>         0.1337
     42 H21         5.9575    2.8942   -2.1453 H         1 <0>         0.1437
     43 H22         6.3705    1.3102   -1.4462 H         1 <0>         0.1398
     44 H23         6.9687   -0.3047   -4.6366 H         1 <0>         0.1437
     45 H24         6.9482   -0.5173   -2.8696 H         1 <0>         0.1372
     46 H25         4.9360   -1.5282   -3.8959 H         1 <0>         0.1182
     47 H26         4.5174    0.0386   -4.6305 H         1 <0>         0.0771
     48 H27         8.0192    2.9093   -3.2707 H         1 <0>         0.1371
     49 H28         8.4723    1.2824   -2.7086 H         1 <0>         0.1317
     50 H29         7.9534    1.6035   -5.7045 H         1 <0>         0.1241
     51 H30        10.0297    0.0628   -3.9291 H         1 <0>         0.1060
     52 H31         9.8365   -0.0956   -5.7564 H         1 <0>         0.1112
     53 H32        10.3488    2.3742   -6.0247 H         1 <0>         0.1153
     54 H33        10.5420    2.5326   -4.1974 H         1 <0>         0.1102
     55 H34         3.4834   -3.6318   -1.6073 H         1 <0>         0.4393
     56 H35         4.5394   -2.3674   -1.5753 H         1 <0>         0.4347
     57 H36         3.1567   -2.3087   -0.6811 H         1 <0>         0.4334
     58 H37         6.0902    1.8925   -4.3099 H         1 <0>         0.4242
@<TRIPOS>BOND
     1    1    2 1
     2    1   25 1
     3    1   26 1
     4    1   27 1
     5    2    3 1
     6    2    4 1
     7    2    5 1
     8    3   28 1
     9    3   29 1
    10    3   30 1
    11    4   31 1
    12    4   32 1
    13    4   33 1
    14    5    6 1
    15    5   13 1
    16    5    7 1
    17    7    8 1
    18    7   34 1
    19    7   35 1
    20    8    9 1
    21    8   36 1
    22    8   37 1
    23    9   10 1
    24    9   11 1
    25    9   24 1
    26   11   12 1
    27   11   13 1
    28   11   14 1
    29   13   38 1
    30   13   39 1
    31   14   19 1
    32   14   15 1
    33   15   16 1
    34   15   40 1
    35   15   41 1
    36   16   17 1
    37   16   42 1
    38   16   43 1
    39   17   18 1
    40   17   20 1
    41   17   58 1
    42   18   19 1
    43   18   44 1
    44   18   45 1
    45   19   46 1
    46   19   47 1
    47   20   21 1
    48   20   48 1
    49   20   49 1
    50   21   23 1
    51   21   22 1
    52   21   50 1
    53   22   23 1
    54   22   51 1
    55   22   52 1
    56   23   53 1
    57   23   54 1
    58   24   55 1
    59   24   56 1
    60   24   57 1
@<TRIPOS>MOLECULE
ZINC55141106
   53    54     0     0     0
SMALL
USER_CHARGES

@<TRIPOS>ATOM
      1 C1         -0.0187    1.5258    0.0104 C.3       1 <0>        -0.1775
      2 C2          0.0021   -0.0041    0.0020 C.3       1 <0>         0.0538
      3 C3          0.7421   -0.5109    1.2415 C.3       1 <0>        -0.1781
      4 C4         -1.4333   -0.5336    0.0129 C.3       1 <0>        -0.1792
      5 N1          0.6897   -0.4778   -1.2066 N.4       1 <0>        -0.3778
      6 C5         -0.0279    0.0005   -2.3950 C.3       1 <0>        -0.0297
      7 C6          0.6207   -0.5869   -3.6529 C.3       1 <0>         0.0894
      8 N2          2.0543   -0.2572   -3.6356 N.am      1 <0>        -0.6317
      9 C7          2.8193   -0.5545   -2.4148 C.3       1 <0>         0.0849
     10 C8          2.0669    0.0313   -1.2154 C.3       1 <0>        -0.0318
     11 C9          2.6500    0.3009   -4.7080 C.2       1 <0>         0.5232
     12 O1          2.0030    0.5383   -5.7060 O.2       1 <0>        -0.5099
     13 C10         4.1201    0.6298   -4.6672 C.3       1 <0>        -0.1412
     14 C11         4.5414    1.2491   -6.0013 C.3       1 <0>        -0.0857
     15 H1          4.2687    0.5778   -6.8157 H         1 <0>         0.0765
     16 C12         3.8312    2.5915   -6.1874 C.3       1 <0>        -0.1334
     17 C13         4.2525    3.2107   -7.5215 C.3       1 <0>        -0.1342
     18 C14         5.7668    3.4298   -7.5265 C.3       1 <0>        -0.1481
     19 C15         6.4769    2.0874   -7.3405 C.3       1 <0>         0.0338
     20 H2          7.5557    2.2435   -7.3440 H         1 <0>         0.1478
     21 C16         6.0556    1.4682   -6.0063 C.3       1 <0>        -0.1432
     22 N3          6.1094    1.1828   -8.4380 N.4       1 <0>        -0.6404
     23 H3          1.0039    1.9031    0.0027 H         1 <0>         0.0797
     24 H4         -0.5459    1.8868   -0.8726 H         1 <0>         0.0807
     25 H5         -0.5289    1.8773    0.9072 H         1 <0>         0.1083
     26 H6          0.2319   -0.1594    2.1383 H         1 <0>         0.1095
     27 H7          0.7568   -1.6008    1.2356 H         1 <0>         0.0838
     28 H8          1.7647   -0.1336    1.2338 H         1 <0>         0.0816
     29 H9         -1.9605   -0.1726   -0.8702 H         1 <0>         0.0825
     30 H10        -1.4185   -1.6235    0.0069 H         1 <0>         0.0839
     31 H11        -1.9435   -0.1821    0.9097 H         1 <0>         0.1096
     32 H12        -1.0698   -0.3153   -2.3421 H         1 <0>         0.1489
     33 H13         0.0206    1.0887   -2.4354 H         1 <0>         0.1356
     34 H14         0.4938   -1.6694   -3.6590 H         1 <0>         0.0975
     35 H15         0.1564   -0.1557   -4.5398 H         1 <0>         0.1368
     36 H16         2.9144   -1.6338   -2.2958 H         1 <0>         0.1012
     37 H17         3.8086   -0.1020   -2.4831 H         1 <0>         0.1291
     38 H18         2.0520    1.1185   -1.2914 H         1 <0>         0.1361
     39 H19         2.5686   -0.2618   -0.2932 H         1 <0>         0.1493
     40 H20         4.3116    1.3382   -3.8612 H         1 <0>         0.1073
     41 H21         4.6917   -0.2818   -4.4931 H         1 <0>         0.1067
     42 H22         2.7525    2.4354   -6.1838 H         1 <0>         0.0949
     43 H23         4.1039    3.2627   -5.3730 H         1 <0>         0.0743
     44 H24         3.9798    2.5395   -8.3359 H         1 <0>         0.0599
     45 H25         3.7466    4.1670   -7.6541 H         1 <0>         0.0939
     46 H26         6.0669    3.8710   -8.4770 H         1 <0>         0.0937
     47 H27         6.0394    4.1011   -6.7122 H         1 <0>         0.1131
     48 H28         6.3283    2.1394   -5.1920 H         1 <0>         0.1151
     49 H29         6.5615    0.5119   -5.8738 H         1 <0>         0.0930
     50 H30         6.3873    1.5912   -9.3178 H         1 <0>         0.4390
     51 H31         6.5777    0.2975   -8.3153 H         1 <0>         0.4357
     52 H32         5.1108    1.0383   -8.4347 H         1 <0>         0.4300
     53 H33         0.7053   -1.4867   -1.2095 H         1 <0>         0.4224
@<TRIPOS>BOND
     1    1    2 1
     2    1   23 1
     3    1   24 1
     4    1   25 1
     5    2    3 1
     6    2    4 1
     7    2    5 1
     8    3   26 1
     9    3   27 1
    10    3   28 1
    11    4   29 1
    12    4   30 1
    13    4   31 1
    14    5   10 1
    15    5    6 1
    16    5   53 1
    17    6    7 1
    18    6   32 1
    19    6   33 1
    20    7    8 1
    21    7   34 1
    22    7   35 1
    23    8    9 1
    24    8   11 am
    25    9   10 1
    26    9   36 1
    27    9   37 1
    28   10   38 1
    29   10   39 1
    30   11   12 2
    31   11   13 1
    32   13   14 1
    33   13   40 1
    34   13   41 1
    35   14   15 1
    36   14   21 1
    37   14   16 1
    38   16   17 1
    39   16   42 1
    40   16   43 1
    41   17   18 1
    42   17   44 1
    43   17   45 1
    44   18   19 1
    45   18   46 1
    46   18   47 1
    47   19   20 1
    48   19   21 1
    49   19   22 1
    50   21   48 1
    51   21   49 1
    52   22   50 1
    53   22   51 1
    54   22   52 1
@<TRIPOS>MOLECULE
ZINC62038010
   52    54     0     0     0
SMALL
USER_CHARGES

@<TRIPOS>ATOM
      1 C1          0.2051    0.6373   -1.2895 C.3       1 <0>        -0.1844
      2 C2          0.3155   -0.7886   -0.7461 C.3       1 <0>         0.0292
      3 H1          1.1734   -1.2849   -1.1998 H         1 <0>         0.1425
      4 C3          0.4970   -0.7431    0.7725 C.3       1 <0>         0.1574
      5 H2         -0.3609   -0.2468    1.2261 H         1 <0>         0.1318
      6 C4          1.7530    0.0201    1.1056 C.2       1 <0>        -0.2344
      7 C5          1.8832    1.2350    1.6925 C.2       1 <0>        -0.0958
      8 C6          3.1505    1.7453    1.9032 C.2       1 <0>        -0.1687
      9 C7          4.2255    1.0157    1.5167 C.2       1 <0>        -0.1370
     10 S1          3.4556   -0.4446    0.8369 S.3       1 <0>         0.0398
     11 N1          0.6030   -2.1122    1.2942 N.3       1 <0>        -0.5366
     12 C8          1.6312   -2.8724    0.5722 C.3       1 <0>         0.0235
     13 C9          1.6136   -4.3291    1.0408 C.3       1 <0>        -0.1249
     14 C10         1.8798   -4.3787    2.5478 C.3       1 <0>        -0.1175
     15 C11         0.8235   -3.5398    3.2725 C.3       1 <0>        -0.1093
     16 C12         0.8640   -2.1059    2.7393 C.3       1 <0>         0.0532
     17 C13         1.8032   -5.8276    3.0332 C.3       1 <0>        -0.0016
     18 N2          2.8916   -6.6055    2.4263 N.4       1 <0>        -0.3960
     19 C14         4.1999   -6.1774    2.9840 C.3       1 <0>        -0.0079
     20 C15         5.1173   -7.3959    2.7115 C.3       1 <0>        -0.1461
     21 C16         4.1755   -8.5982    2.9514 C.3       1 <0>        -0.1466
     22 C17         2.7527   -8.0358    2.7760 C.3       1 <0>        -0.0087
     23 N3         -0.9088   -1.5326   -1.0708 N.4       1 <0>        -0.6311
     24 H3          1.1136    1.1894   -1.0485 H         1 <0>         0.1090
     25 H4          0.0759    0.6049   -2.3713 H         1 <0>         0.0914
     26 H5         -0.6528    1.1336   -0.8358 H         1 <0>         0.0884
     27 H6          1.0099    1.7961    1.9907 H         1 <0>         0.1397
     28 H7          3.2821    2.7110    2.3685 H         1 <0>         0.1464
     29 H8          5.2754    1.2541    1.6016 H         1 <0>         0.1939
     30 H9          1.4279   -2.8326   -0.4979 H         1 <0>         0.0807
     31 H10         2.6110   -2.4384    0.7719 H         1 <0>         0.0684
     32 H11         0.6386   -4.7679    0.8288 H         1 <0>         0.0906
     33 H12         2.3874   -4.8896    0.5160 H         1 <0>         0.0710
     34 H13         2.8709   -3.9757    2.7562 H         1 <0>         0.0957
     35 H14        -0.1639   -3.9661    3.0957 H         1 <0>         0.0869
     36 H15         1.0328   -3.5363    4.3423 H         1 <0>         0.0885
     37 H16         1.8474   -1.6756    2.9289 H         1 <0>         0.0591
     38 H17         0.1034   -1.5095    3.2431 H         1 <0>         0.0953
     39 H18         1.9001   -5.8528    4.1186 H         1 <0>         0.1339
     40 H19         0.8443   -6.2575    2.7440 H         1 <0>         0.1322
     41 H20         4.5693   -5.2937    2.4637 H         1 <0>         0.1318
     42 H21         4.1186   -5.9889    4.0545 H         1 <0>         0.1354
     43 H22         5.4758   -7.3862    1.6822 H         1 <0>         0.0981
     44 H23         5.9524   -7.4143    3.4117 H         1 <0>         0.1191
     45 H24         4.3663   -9.3807    2.2170 H         1 <0>         0.1073
     46 H25         4.3071   -8.9861    3.9615 H         1 <0>         0.1064
     47 H26         2.1956   -8.1380    3.7073 H         1 <0>         0.1324
     48 H27         2.2401   -8.5663    1.9735 H         1 <0>         0.1327
     49 H28        -1.0284   -1.5626   -2.0723 H         1 <0>         0.4392
     50 H29        -0.8360   -2.4730   -0.7125 H         1 <0>         0.4368
     51 H30         2.8851   -6.4902    1.4239 H         1 <0>         0.4215
     52 H31        -1.7029   -1.0732   -0.6509 H         1 <0>         0.4374
@<TRIPOS>BOND
     1    1    2 1
     2    1   24 1
     3    1   25 1
     4    1   26 1
     5    2    3 1
     6    2    4 1
     7    2   23 1
     8    4    5 1
     9    4    6 1
    10    4   11 1
    11    6   10 1
    12    6    7 2
    13    7    8 1
    14    7   27 1
    15    8    9 2
    16    8   28 1
    17    9   10 1
    18    9   29 1
    19   11   16 1
    20   11   12 1
    21   12   13 1
    22   12   30 1
    23   12   31 1
    24   13   14 1
    25   13   32 1
    26   13   33 1
    27   14   15 1
    28   14   17 1
    29   14   34 1
    30   15   16 1
    31   15   35 1
    32   15   36 1
    33   16   37 1
    34   16   38 1
    35   17   18 1
    36   17   39 1
    37   17   40 1
    38   18   22 1
    39   18   19 1
    40   18   51 1
    41   19   20 1
    42   19   41 1
    43   19   42 1
    44   20   21 1
    45   20   43 1
    46   20   44 1
    47   21   22 1
    48   21   45 1
    49   21   46 1
    50   22   47 1
    51   22   48 1
    52   23   49 1
    53   23   50 1
    54   23   52 1
@<TRIPOS>MOLECULE
ZINC63200642
   53    54     0     0     0
SMALL
USER_CHARGES

@<TRIPOS>ATOM
      1 C1          0.0193    1.3131    0.7802 C.3       1 <0>        -0.1803
      2 C2          0.0021   -0.0041    0.0020 C.3       1 <0>         0.0032
      3 H1          0.2287    0.1903   -1.0463 H         1 <0>         0.1573
      4 C3         -1.3620   -0.6350    0.1125 C.2       1 <0>         0.5025
      5 O1         -1.5908   -1.4342    0.9956 O.2       1 <0>        -0.5188
      6 N1         -2.3278   -0.3111   -0.7701 N.am      1 <0>        -0.6909
      7 C4         -3.6538   -0.9245   -0.6627 C.3       1 <0>         0.1664
      8 C5         -4.2657   -0.5817    0.6970 C.3       1 <0>        -0.1692
      9 C6         -4.5551   -0.3891   -1.7772 C.3       1 <0>        -0.1637
     10 C7         -3.5256   -2.4433   -0.7960 C.3       1 <0>        -0.1666
     11 N2          1.0099   -0.9157    0.5600 N.4       1 <0>        -0.3712
     12 C8          1.0098   -2.1692   -0.2036 C.3       1 <0>        -0.0134
     13 C9          2.0003   -3.1528    0.4232 C.3       1 <0>        -0.1348
     14 C10         3.4035   -2.5396    0.4007 C.3       1 <0>        -0.1206
     15 C11         3.3749   -1.1968    1.1362 C.3       1 <0>        -0.1590
     16 C12         2.3334   -0.2857    0.4830 C.3       1 <0>        -0.0106
     17 C13         4.3855   -3.4837    1.0972 C.3       1 <0>         0.0301
     18 H2          4.0787   -3.6556    2.1289 H         1 <0>         0.1504
     19 C14         4.4779   -4.8269    0.3311 C.3       1 <0>        -0.1413
     20 C15         5.8788   -5.3368    0.7604 C.3       1 <0>        -0.1445
     21 C16         6.7060   -4.0380    0.8601 C.3       1 <0>        -0.0108
     22 N3          5.7542   -2.9264    1.0534 N.4       1 <0>        -0.5156
     23 H3          1.0059    1.7695    0.7004 H         1 <0>         0.0967
     24 H4         -0.7285    1.9895    0.3662 H         1 <0>         0.1155
     25 H5         -0.2073    1.1187    1.8286 H         1 <0>         0.0924
     26 H6         -2.1448    0.3281   -1.4764 H         1 <0>         0.4091
     27 H7         -4.3571    0.5003    0.7919 H         1 <0>         0.0606
     28 H8         -5.2524   -1.0380    0.7769 H         1 <0>         0.0775
     29 H9         -3.6236   -0.9631    1.4909 H         1 <0>         0.0758
     30 H10        -4.1192   -0.6333   -2.7459 H         1 <0>         0.0673
     31 H11        -5.5418   -0.8454   -1.6973 H         1 <0>         0.0873
     32 H12        -4.6465    0.6929   -1.6822 H         1 <0>         0.0690
     33 H13        -2.8835   -2.8247   -0.0020 H         1 <0>         0.0733
     34 H14        -4.5122   -2.8996   -0.7161 H         1 <0>         0.0786
     35 H15        -3.0897   -2.6875   -1.7647 H         1 <0>         0.0580
     36 H16         0.0098   -2.6027   -0.1894 H         1 <0>         0.1436
     37 H17         1.3023   -1.9666   -1.2339 H         1 <0>         0.1337
     38 H18         1.7085   -3.3564    1.4534 H         1 <0>         0.1033
     39 H19         2.0001   -4.0822   -0.1463 H         1 <0>         0.1257
     40 H20         3.7164   -2.3832   -0.6316 H         1 <0>         0.1154
     41 H21         3.1116   -1.3597    2.1813 H         1 <0>         0.1058
     42 H22         4.3571   -0.7280    1.0765 H         1 <0>         0.1110
     43 H23         2.5977   -0.1232   -0.5619 H         1 <0>         0.1371
     44 H24         2.3106    0.6714    1.0042 H         1 <0>         0.1460
     45 H25         3.6963   -5.5148    0.6535 H         1 <0>         0.1216
     46 H26         4.4342   -4.6658   -0.7460 H         1 <0>         0.1029
     47 H27         5.8273   -5.8362    1.7279 H         1 <0>         0.1044
     48 H28         6.2953   -6.0019    0.0039 H         1 <0>         0.1193
     49 H29         7.3848   -4.0950    1.7111 H         1 <0>         0.1395
     50 H30         7.2721   -3.8874   -0.0591 H         1 <0>         0.1378
     51 H31         5.8317   -2.2762    0.2857 H         1 <0>         0.4269
     52 H32         5.9554   -2.4515    1.9206 H         1 <0>         0.4339
     53 H33         0.7873   -1.1117    1.5244 H         1 <0>         0.4324
@<TRIPOS>BOND
     1    1    2 1
     2    1   23 1
     3    1   24 1
     4    1   25 1
     5    2    3 1
     6    2    4 1
     7    2   11 1
     8    4    5 2
     9    4    6 am
    10    6    7 1
    11    6   26 1
    12    7    8 1
    13    7    9 1
    14    7   10 1
    15    8   27 1
    16    8   28 1
    17    8   29 1
    18    9   30 1
    19    9   31 1
    20    9   32 1
    21   10   33 1
    22   10   34 1
    23   10   35 1
    24   11   16 1
    25   11   12 1
    26   11   53 1
    27   12   13 1
    28   12   36 1
    29   12   37 1
    30   13   14 1
    31   13   38 1
    32   13   39 1
    33   14   15 1
    34   14   17 1
    35   14   40 1
    36   15   16 1
    37   15   41 1
    38   15   42 1
    39   16   43 1
    40   16   44 1
    41   17   18 1
    42   17   22 1
    43   17   19 1
    44   19   20 1
    45   19   45 1
    46   19   46 1
    47   20   21 1
    48   20   47 1
    49   20   48 1
    50   21   22 1
    51   21   49 1
    52   21   50 1
    53   22   51 1
    54   22   52 1
@<TRIPOS>MOLECULE
ZINC15205711
   36    38     0     0     0
SMALL
USER_CHARGES
(2S,3S,4R,5R,6S)-6-[(5-bromo-1H-indol-3-yl)oxy]-3,4,5-trihydroxy-tetrahydropyran-2-carboxylic acid
@<TRIPOS>ATOM
      1 C1          1.2099   -0.6899   -0.0127 C.ar      1 <0>        -0.0683
      2 C2          2.4056   -0.0064   -0.0200 C.ar      1 <0>        -0.1273
      3 C3          2.4101    1.3846   -0.0130 C.ar      1 <0>         0.1293
      4 C4          1.1871    2.0800    0.0019 C.ar      1 <0>        -0.1014
      5 C5         -0.0166    1.3729    0.0096 C.ar      1 <0>        -0.0190
      6 C6          0.0021   -0.0041    0.0020 C.ar      1 <0>        -0.1273
      7 Br1        -1.6256   -0.9665    0.0124 Br        1 <0>        -0.0600
      8 C7          1.5289    3.5064    0.0063 C.2       1 <0>         0.0475
      9 C8          2.8710    3.5889   -0.0061 C.2       1 <0>        -0.0066
     10 N1          3.4149    2.3264   -0.0178 N.pl3     1 <0>        -0.5804
     11 H1          4.3645    2.1286   -0.0270 H         1 <0>         0.4221
     12 O1          0.6530    4.5496    0.0196 O.3       1 <0>        -0.2854
     13 C9          1.2109    5.8652    0.0214 C.3       1 <0>         0.2243
     14 H2          1.8876    5.9743   -0.8261 H         1 <0>         0.0710
     15 C10         0.0854    6.8972   -0.0875 C.3       1 <0>         0.0637
     16 H3         -0.6138    6.7621    0.7377 H         1 <0>         0.0841
     17 C11         0.6861    8.3049   -0.0242 C.3       1 <0>         0.1245
     18 H4         -0.1145    9.0443   -0.0449 H         1 <0>         0.0786
     19 C12         1.4839    8.4497    1.2754 C.3       1 <0>         0.1066
     20 H5          0.8129    8.3460    2.1281 H         1 <0>         0.0709
     21 C13         2.5554    7.3578    1.3317 C.3       1 <0>         0.0261
     22 H6          3.2498    7.4865    0.5014 H         1 <0>         0.0791
     23 O2          1.9321    6.0753    1.2372 O.3       1 <0>        -0.3637
     24 C14         3.3060    7.4569    2.6346 C.2       1 <0>         0.4713
     25 O3          3.2337    6.5619    3.4431 O.co2     1 <0>        -0.6043
     26 O4          2.1088    9.7343    1.3114 O.3       1 <0>        -0.5531
     27 O5          1.5528    8.5074   -1.1422 O.3       1 <0>        -0.5432
     28 O6         -0.6008    6.7262   -1.3292 O.3       1 <0>        -0.5571
     29 H7          1.2114   -1.7699   -0.0182 H         1 <0>         0.1342
     30 H8          3.3389   -0.5498   -0.0315 H         1 <0>         0.1312
     31 H9         -0.9575    1.9029    0.0169 H         1 <0>         0.1344
     32 H10         3.4367    4.5089   -0.0059 H         1 <0>         0.1754
     33 H11         2.6359    9.8931    2.1065 H         1 <0>         0.4002
     34 H12         1.1129    8.4300   -1.9999 H         1 <0>         0.3782
     35 H13        -1.0027    5.8536   -1.4396 H         1 <0>         0.3904
     36 O7          4.0550    8.5395    2.8970 O.co2     1 <0>        -0.7460
@<TRIPOS>BOND
     1    1    6 ar
     2    1    2 ar
     3    1   29 1
     4    2    3 ar
     5    2   30 1
     6    3   10 1
     7    3    4 ar
     8    4    5 ar
     9    4    8 1
    10    5    6 ar
    11    5   31 1
    12    6    7 1
    13    8    9 2
    14    8   12 1
    15    9   10 1
    16    9   32 1
    17   10   11 1
    18   12   13 1
    19   13   14 1
    20   13   23 1
    21   13   15 1
    22   15   16 1
    23   15   17 1
    24   15   28 1
    25   17   18 1
    26   17   19 1
    27   17   27 1
    28   19   20 1
    29   19   21 1
    30   19   26 1
    31   21   22 1
    32   21   23 1
    33   21   24 1
    34   24   25 2
    35   24   36 1
    36   26   33 1
    37   27   34 1
    38   28   35 1
@<TRIPOS>MOLECULE
ZINC40142895
   41    42     0     0     0
SMALL
USER_CHARGES

@<TRIPOS>ATOM
      1 C1         -0.1181    1.5115    0.0183 C.3       1 <0>         0.0263
      2 O1         -0.0463    0.0843    0.0132 O.3       1 <0>        -0.3084
      3 C2         -1.2253   -0.5932    0.0157 C.ar      1 <0>         0.1190
      4 C3         -2.4233    0.1072    0.0173 C.ar      1 <0>        -0.2239
      5 C4         -3.6287   -0.5635    0.0204 C.ar      1 <0>        -0.0570
      6 C5         -3.6555   -1.9596    0.0219 C.ar      1 <0>        -0.0913
      7 C6         -2.4385   -2.6823    0.0198 C.ar      1 <0>        -0.0409
      8 C7         -1.2233   -1.9842    0.0110 C.ar      1 <0>         0.0636
      9 O2         -0.0485   -2.6631    0.0039 O.3       1 <0>        -0.3159
     10 C8          0.5185   -2.9920    1.2737 C.3       1 <0>         0.0380
     11 C9         -2.4491   -4.1489    0.0218 C.2       1 <0>         0.5560
     12 O3         -2.3648   -4.7631   -1.0338 O.co2     1 <0>        -0.6657
     13 O4         -2.5424   -4.7589    1.0791 O.co2     1 <0>        -0.6785
     14 C10        -4.9370   -2.6728    0.0262 C.2       1 <0>         0.1865
     15 N1         -4.9602   -3.9762   -0.0757 N.2       1 <0>        -0.2951
     16 N2         -6.0873   -4.6036   -0.0720 N.2       1 <0>        -0.3631
     17 C11        -6.1107   -5.9184   -0.1748 C.2       1 <0>         0.3892
     18 N3         -7.2080   -6.7504   -0.1948 N.am      1 <0>        -0.6476
     19 C12        -7.1021   -8.0638   -0.3028 C.2       1 <0>         0.5393
     20 O5         -8.0734   -8.7894   -0.3200 O.2       1 <0>        -0.4938
     21 C13        -5.6856   -8.6070   -0.4047 C.3       1 <0>        -0.1353
     22 H1         -5.4510   -9.2591    0.4367 H         1 <0>         0.1505
     23 S1         -4.7267   -7.0377   -0.3287 S.3       1 <0>         0.0114
     24 C14        -5.4614   -9.3249   -1.7370 C.3       1 <0>        -0.0894
     25 C15        -4.0699   -9.9609   -1.7458 C.3       1 <0>         0.0759
     26 O6         -3.8604  -10.6314   -2.9902 O.3       1 <0>        -0.5731
     27 H2          0.8899    1.9261    0.0156 H         1 <0>         0.0950
     28 H3         -0.6533    1.8516   -0.8683 H         1 <0>         0.0533
     29 H4         -0.6459    1.8455    0.9116 H         1 <0>         0.0521
     30 H5         -2.4117    1.1871    0.0165 H         1 <0>         0.1292
     31 H6         -4.5544   -0.0071    0.0220 H         1 <0>         0.1279
     32 H7          1.4535   -3.5322    1.1252 H         1 <0>         0.0844
     33 H8          0.7125   -2.0768    1.8330 H         1 <0>         0.0348
     34 H9         -0.1781   -3.6179    1.8314 H         1 <0>         0.0566
     35 H10        -5.8616   -2.1214    0.1134 H         1 <0>         0.1076
     36 H11        -8.0923   -6.3578   -0.1266 H         1 <0>         0.4126
     37 H12        -6.2164  -10.1009   -1.8632 H         1 <0>         0.0897
     38 H13        -5.5380   -8.6072   -2.5539 H         1 <0>         0.0856
     39 H14        -3.3149   -9.1849   -1.6197 H         1 <0>         0.0624
     40 H15        -3.9933  -10.6786   -0.9290 H         1 <0>         0.0498
     41 H16        -2.9964  -11.0589   -3.0661 H         1 <0>         0.3823
@<TRIPOS>BOND
     1    1    2 1
     2    1   27 1
     3    1   28 1
     4    1   29 1
     5    2    3 1
     6    3    8 ar
     7    3    4 ar
     8    4    5 ar
     9    4   30 1
    10    5    6 ar
    11    5   31 1
    12    6    7 ar
    13    6   14 1
    14    7    8 ar
    15    7   11 1
    16    8    9 1
    17    9   10 1
    18   10   32 1
    19   10   33 1
    20   10   34 1
    21   11   12 2
    22   11   13 1
    23   14   15 2
    24   14   35 1
    25   15   16 1
    26   16   17 2
    27   17   23 1
    28   17   18 1
    29   18   19 am
    30   18   36 1
    31   19   20 2
    32   19   21 1
    33   21   22 1
    34   21   23 1
    35   21   24 1
    36   24   25 1
    37   24   37 1
    38   24   38 1
    39   25   26 1
    40   25   39 1
    41   25   40 1
    42   26   41 1
@<TRIPOS>MOLECULE
ZINC44900618
   40    43     0     0     0
SMALL
USER_CHARGES

@<TRIPOS>ATOM
      1 C1         -0.0166    1.3704    0.0096 C.ar      1 <0>        -0.1318
      2 C2          1.1734    2.0805    0.0020 C.ar      1 <0>        -0.0675
      3 C3          2.3771    1.4125   -0.0158 C.ar      1 <0>        -0.1477
      4 C4          2.4175    0.0158   -0.0249 C.ar      1 <0>         0.1748
      5 C5          1.2219   -0.7012   -0.0131 C.ar      1 <0>        -0.1511
      6 C6          0.0021   -0.0041    0.0020 C.ar      1 <0>        -0.0459
      7 C7          1.1662   -2.1677   -0.0113 C.2       1 <0>         0.5570
      8 O1          0.3151   -2.7028   -0.6952 O.2       1 <0>        -0.5241
      9 N1          1.9842   -2.9528    0.6878 N.am      1 <0>        -0.6945
     10 C8          3.0486   -2.3966    1.5231 C.3       1 <0>         0.1436
     11 H1          3.5653   -3.2041    2.0419 H         1 <0>         0.1475
     12 C9          4.0211   -1.6587    0.6444 C.2       1 <0>         0.5154
     13 O2          5.1637   -2.0578    0.5664 O.2       1 <0>        -0.5037
     14 N2          3.6652   -0.5821   -0.0492 N.am      1 <0>        -0.6568
     15 C10         2.4457   -1.4327    2.5470 C.3       1 <0>        -0.1676
     16 C11         1.5561   -2.1969    3.4933 C.2       1 <0>         0.5149
     17 O3          1.4179   -3.3946    3.3618 O.2       1 <0>        -0.4528
     18 N3          0.9141   -1.5494    4.4858 N.am      1 <0>        -0.6136
     19 C12         0.0931   -2.2547    5.3591 C.2       1 <0>         0.2267
     20 N4         -0.1792   -3.5445    5.3857 N.2       1 <0>        -0.2951
     21 N5         -0.9530   -4.0459    6.2496 N.2       1 <0>        -0.2351
     22 C13        -1.5047   -3.2579    7.1507 C.2       1 <0>         0.0662
     23 S1         -0.8083   -1.6850    6.6650 S.3       1 <0>         0.0851
     24 C14        -2.4502   -3.5901    8.2761 C.3       1 <0>        -0.0836
     25 C15        -2.7065   -5.0696    8.5700 C.3       1 <0>        -0.1451
     26 C16        -3.7939   -4.2218    7.9067 C.3       1 <0>        -0.1524
     27 H2         -0.9592    1.8972    0.0259 H         1 <0>         0.1385
     28 H3          1.1565    3.1603    0.0098 H         1 <0>         0.1388
     29 H4          3.2997    1.9739   -0.0231 H         1 <0>         0.1393
     30 H5         -0.9283   -0.5525    0.0081 H         1 <0>         0.1398
     31 H6          1.8719   -3.9152    0.6417 H         1 <0>         0.4224
     32 H7          4.3378   -0.1814   -0.6219 H         1 <0>         0.4159
     33 H8          3.2465   -0.9523    3.1092 H         1 <0>         0.1253
     34 H9          1.8589   -0.6736    2.0298 H         1 <0>         0.1189
     35 H10         1.0247   -0.5915    4.5910 H         1 <0>         0.4289
     36 H11        -2.4325   -2.9041    9.1230 H         1 <0>         0.1372
     37 H12        -2.1912   -5.8026    7.9494 H         1 <0>         0.1096
     38 H13        -2.8574   -5.3572    9.6105 H         1 <0>         0.1101
     39 H14        -4.6600   -3.9518    8.5108 H         1 <0>         0.1107
     40 H15        -3.9939   -4.3971    6.8496 H         1 <0>         0.1018
@<TRIPOS>BOND
     1    1    6 ar
     2    1    2 ar
     3    1   27 1
     4    2    3 ar
     5    2   28 1
     6    3    4 ar
     7    3   29 1
     8    4   14 1
     9    4    5 ar
    10    5    6 ar
    11    5    7 1
    12    6   30 1
    13    7    8 2
    14    7    9 am
    15    9   10 1
    16    9   31 1
    17   10   11 1
    18   10   12 1
    19   10   15 1
    20   12   13 2
    21   12   14 am
    22   14   32 1
    23   15   16 1
    24   15   33 1
    25   15   34 1
    26   16   17 2
    27   16   18 am
    28   18   19 1
    29   18   35 1
    30   19   23 1
    31   19   20 2
    32   20   21 1
    33   21   22 2
    34   22   23 1
    35   22   24 1
    36   24   26 1
    37   24   25 1
    38   24   36 1
    39   25   26 1
    40   25   37 1
    41   25   38 1
    42   26   39 1
    43   26   40 1
@<TRIPOS>MOLECULE
ZINC57504322
   40    42     0     0     0
SMALL
USER_CHARGES

@<TRIPOS>ATOM
      1 C1         -0.0184    1.5028    0.0103 C.3       1 <0>        -0.1118
      2 C2          0.0021   -0.0041    0.0020 C.2       1 <0>         0.1840
      3 C3          0.0080   -0.8237   -1.1409 C.2       1 <0>        -0.7854
      4 C4          0.0273   -2.1079   -0.7353 C.2       1 <0>         0.1956
      5 O1          0.0335   -2.1190    0.6064 O.3       1 <0>        -0.0904
      6 N1          0.0230   -0.7748    1.0524 N.2       1 <0>        -0.3351
      7 C5          0.0393   -3.3197   -1.6311 C.3       1 <0>        -0.1260
      8 S1         -0.0076   -0.2673   -2.8126 S.o2      1 <0>         2.6345
      9 O2         -0.5474   -1.3282   -3.5887 O.2       1 <0>        -1.0282
     10 O3         -0.5765    1.0348   -2.8020 O.2       1 <0>        -1.0238
     11 N2          1.5698   -0.0907   -3.2847 N.2       1 <0>        -1.0870
     12 C6          1.8672    0.3436   -4.5784 C.ar      1 <0>         0.2819
     13 C7          0.8408    0.6335   -5.4687 C.ar      1 <0>        -0.2535
     14 C8          1.1383    1.0632   -6.7468 C.ar      1 <0>        -0.0644
     15 C9          2.4563    1.2047   -7.1412 C.ar      1 <0>        -0.2073
     16 C10         3.4803    0.9166   -6.2579 C.ar      1 <0>        -0.0683
     17 C11         3.1897    0.4923   -4.9760 C.ar      1 <0>        -0.1525
     18 C12         4.9150    1.0713   -6.6925 C.3       1 <0>         0.1714
     19 C13         5.6087   -0.2760   -6.7312 C.2       1 <0>         0.5365
     20 O4          5.7882   -1.0341   -5.8023 O.2       1 <0>        -0.4511
     21 N3          5.9837   -0.4560   -8.0130 N.am      1 <0>        -0.6829
     22 C14         5.6271    0.5795   -8.7816 C.2       1 <0>         0.7084
     23 O5          5.8567    0.6470   -9.9732 O.2       1 <0>        -0.5562
     24 N4          4.9864    1.5377   -8.0880 N.am      1 <0>        -0.7107
     25 C15         5.6560    2.0355   -5.7640 C.3       1 <0>        -0.1409
     26 H1          1.0042    1.8801    0.0026 H         1 <0>         0.0951
     27 H2         -0.5455    1.8639   -0.8728 H         1 <0>         0.1210
     28 H3         -0.5286    1.8543    0.9071 H         1 <0>         0.0796
     29 H4          1.0697   -3.5980   -1.8521 H         1 <0>         0.1073
     30 H5         -0.4610   -4.1477   -1.1290 H         1 <0>         0.0890
     31 H6         -0.4822   -3.0898   -2.5603 H         1 <0>         0.1357
     32 H7         -0.1887    0.5226   -5.1615 H         1 <0>         0.0995
     33 H8          0.3408    1.2887   -7.4393 H         1 <0>         0.1063
     34 H9          2.6863    1.5406   -8.1416 H         1 <0>         0.1054
     35 H10         3.9899    0.2720   -4.2850 H         1 <0>         0.1211
     36 H11         6.4546   -1.2392   -8.3381 H         1 <0>         0.4289
     37 H12         4.6389    2.3727   -8.4385 H         1 <0>         0.4400
     38 H13         5.6347    1.6478   -4.7456 H         1 <0>         0.0894
     39 H14         6.6902    2.1345   -6.0936 H         1 <0>         0.0629
     40 H15         5.1709    3.0113   -5.7915 H         1 <0>         0.0816
@<TRIPOS>BOND
     1    1    2 1
     2    1   26 1
     3    1   27 1
     4    1   28 1
     5    2    6 2
     6    2    3 1
     7    3    4 2
     8    3    8 1
     9    4    5 1
    10    4    7 1
    11    5    6 1
    12    7   29 1
    13    7   30 1
    14    7   31 1
    15    8    9 2
    16    8   10 2
    17    8   11 1
    18   11   12 1
    19   12   17 ar
    20   12   13 ar
    21   13   14 ar
    22   13   32 1
    23   14   15 ar
    24   14   33 1
    25   15   16 ar
    26   15   34 1
    27   16   17 ar
    28   16   18 1
    29   17   35 1
    30   18   24 1
    31   18   19 1
    32   18   25 1
    33   19   20 2
    34   19   21 am
    35   21   22 am
    36   21   36 1
    37   22   23 2
    38   22   24 am
    39   24   37 1
    40   25   38 1
    41   25   39 1
    42   25   40 1
@<TRIPOS>MOLECULE
ZINC65880213
   35    37     0     0     0
SMALL
USER_CHARGES

@<TRIPOS>ATOM
      1 C1         -0.0167    1.3798    0.0096 C.ar      1 <0>        -0.0825
      2 C2          1.1937    2.0588    0.0017 C.ar      1 <0>        -0.1806
      3 C3          2.3744    1.3397   -0.0134 C.ar      1 <0>         0.0984
      4 N1          2.3640    0.0221   -0.0204 N.ar      1 <0>        -0.4397
      5 C4          1.2289   -0.6644   -0.0132 C.ar      1 <0>         0.2284
      6 C5          0.0021   -0.0041    0.0020 C.ar      1 <0>        -0.1460
      7 C6          1.2661   -2.1475   -0.0221 C.2       1 <0>         0.2489
      8 N2          2.3758   -2.8962   -0.0371 N.2       1 <0>        -0.5161
      9 H1          0.1588   -5.0678   -0.0262 H         1 <0>         0.4273
     10 C7          2.0498   -4.1736   -0.0404 C.2       1 <0>         0.5177
     11 N3          0.6915   -4.2572   -0.0272 N.pl3     1 <0>        -0.5098
     12 N4          0.2145   -2.9365   -0.0106 N.2       1 <0>        -0.3465
     13 N5          2.9189   -5.2242   -0.0551 N.2       1 <0>        -0.6616
     14 C8          4.2028   -5.0070   -0.0669 C.2       1 <0>         0.4212
     15 O1          4.6723   -3.7445   -0.0646 O.3       1 <0>        -0.6539
     16 C9          5.1633   -6.1681   -0.0830 C.3       1 <0>         0.1567
     17 N6          4.4104   -7.4248   -0.0823 N.pl3     1 <0>        -1.0907
     18 S1          5.1693   -8.8450   -0.4691 S.o2      1 <0>         2.7249
     19 O2          4.1934   -9.8715   -0.3536 O.2       1 <0>        -0.9580
     20 O3          5.8864   -8.6076   -1.6727 O.2       1 <0>        -0.9529
     21 C10         6.3720   -9.1504    0.7818 C.2       1 <0>        -0.7535
     22 C11         6.2405   -9.8374    1.9429 C.2       1 <0>        -0.0127
     23 C12         7.3329   -9.9509    2.7821 C.2       1 <0>        -0.1907
     24 C13         8.5035   -9.3718    2.4192 C.2       1 <0>        -0.1435
     25 S2          8.0822   -8.6421    0.8452 S.3       1 <0>         0.1656
     26 H2         -0.9522    1.9192    0.0259 H         1 <0>         0.1336
     27 H3          1.2131    3.1386    0.0070 H         1 <0>         0.1317
     28 H4          3.3180    1.8650   -0.0200 H         1 <0>         0.1558
     29 H5         -0.9213   -0.5643    0.0082 H         1 <0>         0.1407
     30 H6          5.7818   -6.1156   -0.9790 H         1 <0>         0.0933
     31 H7          5.7998   -6.1255    0.8008 H         1 <0>         0.0774
     32 H8          3.4673   -7.4250    0.1446 H         1 <0>         0.4339
     33 H9          5.2961  -10.2891    2.2085 H         1 <0>         0.1476
     34 H10         7.2549  -10.4925    3.7132 H         1 <0>         0.1420
     35 H11         9.4473   -9.3587    2.9440 H         1 <0>         0.1935
@<TRIPOS>BOND
     1    1    6 ar
     2    1    2 ar
     3    1   26 1
     4    2    3 ar
     5    2   27 1
     6    3    4 ar
     7    3   28 1
     8    4    5 ar
     9    5    6 ar
    10    5    7 1
    11    6   29 1
    12    7    8 1
    13    7   12 2
    14    8   10 2
    15    9   11 1
    16   10   13 1
    17   10   11 1
    18   11   12 1
    19   13   14 2
    20   14   15 1
    21   14   16 1
    22   16   17 1
    23   16   30 1
    24   16   31 1
    25   17   18 1
    26   17   32 1
    27   18   19 2
    28   18   20 2
    29   18   21 1
    30   21   25 1
    31   21   22 2
    32   22   23 1
    33   22   33 1
    34   23   24 2
    35   23   34 1
    36   24   25 1
    37   24   35 1
@<TRIPOS>MOLECULE
ZINC37968858
   40    41     0     0     0
SMALL
USER_CHARGES

@<TRIPOS>ATOM
      1 C1         -0.3052   -1.9178    0.0470 C.3       1 <0>         0.0180
      2 O1         -1.1592   -3.0389   -0.1892 O.3       1 <0>        -0.2898
      3 C2         -2.4964   -2.7964   -0.2401 C.ar      1 <0>         0.1304
      4 C3         -2.9752   -1.5068   -0.0721 C.ar      1 <0>        -0.1566
      5 C4         -4.3347   -1.2617   -0.1235 C.ar      1 <0>        -0.1086
      6 C5         -5.2199   -2.3008   -0.3424 C.ar      1 <0>        -0.1085
      7 C6         -4.7490   -3.5904   -0.5110 C.ar      1 <0>        -0.0786
      8 C7         -3.3862   -3.8416   -0.4666 C.ar      1 <0>         0.1407
      9 O2         -2.9207   -5.1081   -0.6377 O.3       1 <0>        -0.4663
     10 Br1        -5.9631   -5.0092   -0.8089 Br        1 <0>         0.0103
     11 C8         -4.8531    0.1414    0.0600 C.3       1 <0>         0.0616
     12 H1         -4.0506    0.8534   -0.1333 H         1 <0>         0.1686
     13 C9         -5.3477    0.3134    1.4730 C.2       1 <0>         0.5142
     14 O3         -6.5183    0.1303    1.7323 O.2       1 <0>        -0.5142
     15 N1         -4.4893    0.6708    2.4487 N.am      1 <0>        -0.8206
     16 N2         -5.9576    0.3820   -0.8782 N.4       1 <0>        -0.4913
     17 C10        -5.4460    0.3517   -2.2549 C.3       1 <0>         0.0153
     18 C11        -4.5145    1.5569   -2.4991 C.3       1 <0>        -0.1435
     19 C12        -4.8140    1.9788   -3.9590 C.3       1 <0>        -0.1233
     20 C13        -6.3447    1.7686   -4.0683 C.3       1 <0>        -0.1301
     21 C14        -6.6097    0.4864   -3.2527 C.3       1 <0>        -0.1431
     22 H2          0.7331   -2.2491    0.0636 H         1 <0>         0.1158
     23 H3         -0.4399   -1.1845   -0.7482 H         1 <0>         0.0625
     24 H4         -0.5574   -1.4646    1.0057 H         1 <0>         0.0621
     25 H5         -2.2860   -0.6931    0.0994 H         1 <0>         0.1520
     26 H6         -6.2813   -2.1053   -0.3816 H         1 <0>         0.1392
     27 H7         -2.8444   -5.6133    0.1833 H         1 <0>         0.4061
     28 H8         -3.5532    0.8172    2.2414 H         1 <0>         0.4115
     29 H9         -4.8078    0.7815    3.3583 H         1 <0>         0.4265
     30 H10        -6.6582   -0.3351   -0.7639 H         1 <0>         0.4331
     31 H11        -4.9077   -0.5792   -2.4326 H         1 <0>         0.1467
     32 H12        -4.7521    2.3683   -1.8111 H         1 <0>         0.0884
     33 H13        -3.4710    1.2599   -2.3943 H         1 <0>         0.0980
     34 H14        -4.5554    3.0255   -4.1194 H         1 <0>         0.0902
     35 H15        -4.2847    1.3367   -4.6630 H         1 <0>         0.0848
     36 H16        -6.8779    2.6142   -3.6338 H         1 <0>         0.0795
     37 H17        -6.6369    1.6261   -5.1088 H         1 <0>         0.0897
     38 H18        -6.6356   -0.3789   -3.9151 H         1 <0>         0.1071
     39 H19        -7.5540    0.5741   -2.7153 H         1 <0>         0.0884
     40 H20        -6.3670    1.2850   -0.6913 H         1 <0>         0.4340
@<TRIPOS>BOND
     1    1    2 1
     2    1   22 1
     3    1   23 1
     4    1   24 1
     5    2    3 1
     6    3    8 ar
     7    3    4 ar
     8    4    5 ar
     9    4   25 1
    10    5    6 ar
    11    5   11 1
    12    6    7 ar
    13    6   26 1
    14    7    8 ar
    15    7   10 1
    16    8    9 1
    17    9   27 1
    18   11   12 1
    19   11   13 1
    20   11   16 1
    21   13   14 2
    22   13   15 am
    23   15   28 1
    24   15   29 1
    25   16   17 1
    26   16   30 1
    27   16   40 1
    28   17   21 1
    29   17   18 1
    30   17   31 1
    31   18   19 1
    32   18   32 1
    33   18   33 1
    34   19   20 1
    35   19   34 1
    36   19   35 1
    37   20   21 1
    38   20   36 1
    39   20   37 1
    40   21   38 1
    41   21   39 1
@<TRIPOS>MOLECULE
ZINC41712614
   37    38     0     0     0
SMALL
USER_CHARGES

@<TRIPOS>ATOM
      1 C1          0.7794    1.4119    0.0639 C.3       1 <0>        -0.1811
      2 C2          0.4272   -0.0765    0.0227 C.3       1 <0>         0.0854
      3 H1         -0.6560   -0.1945    0.0528 H         1 <0>         0.1481
      4 C3          1.0414   -0.7711    1.2107 C.ar      1 <0>        -0.1264
      5 C4          2.3803   -1.1170    1.1925 C.ar      1 <0>        -0.1402
      6 C5          2.9475   -1.7543    2.2804 C.ar      1 <0>        -0.0799
      7 C6          2.1781   -2.0473    3.3896 C.ar      1 <0>        -0.0964
      8 C7          0.8337   -1.7009    3.4112 C.ar      1 <0>         0.1860
      9 C8          0.2680   -1.0564    2.3186 C.ar      1 <0>        -0.1210
     10 N1          0.0514   -1.9966    4.5331 N.am      1 <0>        -0.6846
     11 C9          0.6017   -1.9744    5.7632 C.2       1 <0>         0.7058
     12 O1          1.7515   -1.6066    5.9083 O.2       1 <0>        -0.5464
     13 N2         -0.1225   -2.3600    6.8325 N.am      1 <0>        -0.6757
     14 C10         0.4105   -2.2350    8.1206 C.ar      1 <0>         0.1719
     15 C11         1.2671   -1.1838    8.4200 C.ar      1 <0>        -0.1158
     16 C12         1.7915   -1.0630    9.6919 C.ar      1 <0>        -0.0630
     17 C13         1.4643   -1.9879   10.6672 C.ar      1 <0>        -0.1122
     18 C14         0.6116   -3.0363   10.3716 C.ar      1 <0>        -0.0620
     19 C15         0.0792   -3.1587    9.1031 C.ar      1 <0>        -0.1379
     20 I1          2.2621   -1.8008   12.5952 I         1 <0>        -0.0323
     21 N3          0.9501   -0.6693   -1.2154 N.4       1 <0>        -0.6363
     22 H2          1.8626    1.5299    0.0338 H         1 <0>         0.0841
     23 H3          0.3352    1.9143   -0.7954 H         1 <0>         0.0864
     24 H4          0.3914    1.8518    0.9826 H         1 <0>         0.1077
     25 H5          2.9840   -0.8891    0.3265 H         1 <0>         0.1226
     26 H6          3.9932   -2.0238    2.2629 H         1 <0>         0.1404
     27 H7          2.6217   -2.5455    4.2390 H         1 <0>         0.1487
     28 H8         -0.7764   -0.7820    2.3340 H         1 <0>         0.1376
     29 H9         -0.8870   -2.2176    4.4255 H         1 <0>         0.4142
     30 H10        -1.0131   -2.7241    6.7093 H         1 <0>         0.4131
     31 H11         1.5232   -0.4617    7.6589 H         1 <0>         0.1422
     32 H12         2.4581   -0.2459    9.9253 H         1 <0>         0.1352
     33 H13         0.3581   -3.7571   11.1349 H         1 <0>         0.1374
     34 H14        -0.5903   -3.9746    8.8743 H         1 <0>         0.1361
     35 H15         1.9528   -0.5601   -1.2433 H         1 <0>         0.4319
     36 H16         0.7178   -1.6509   -1.2426 H         1 <0>         0.4381
     37 H17         0.5389   -0.2043   -2.0109 H         1 <0>         0.4382
@<TRIPOS>BOND
     1    1    2 1
     2    1   22 1
     3    1   23 1
     4    1   24 1
     5    2    3 1
     6    2    4 1
     7    2   21 1
     8    4    9 ar
     9    4    5 ar
    10    5    6 ar
    11    5   25 1
    12    6    7 ar
    13    6   26 1
    14    7    8 ar
    15    7   27 1
    16    8    9 ar
    17    8   10 1
    18    9   28 1
    19   10   11 am
    20   10   29 1
    21   11   12 2
    22   11   13 am
    23   13   14 1
    24   13   30 1
    25   14   19 ar
    26   14   15 ar
    27   15   16 ar
    28   15   31 1
    29   16   17 ar
    30   16   32 1
    31   17   18 ar
    32   17   20 1
    33   18   19 ar
    34   18   33 1
    35   19   34 1
    36   21   35 1
    37   21   36 1
    38   21   37 1
@<TRIPOS>MOLECULE
ZINC45254579
   49    52     0     0     0
SMALL
USER_CHARGES

@<TRIPOS>ATOM
      1 C1          2.6521   -3.1197    3.2071 C.ar      1 <0>        -0.0730
      2 C2          3.8517   -2.4314    3.2018 C.ar      1 <0>        -0.1360
      3 C3          4.1858   -1.6261    2.1287 C.ar      1 <0>        -0.0703
      4 C4          3.3211   -1.5065    1.0571 C.ar      1 <0>        -0.0830
      5 C5          2.1150   -2.1974    1.0595 C.ar      1 <0>         0.1990
      6 C6          1.7834   -3.0053    2.1395 C.ar      1 <0>        -0.1452
      7 N1          1.2374   -2.0787   -0.0224 N.pl3     1 <0>        -0.6779
      8 C7          0.1002   -2.8574   -0.0765 C.2       1 <0>         0.4732
      9 C8         -1.1144   -2.2502   -0.1486 C.2       1 <0>        -0.2534
     10 C9         -2.2951   -2.9992   -0.2059 C.2       1 <0>         0.3291
     11 C10        -2.2150   -4.4010   -0.1881 C.2       1 <0>        -0.1618
     12 C11        -0.8883   -5.0183   -0.1097 C.2       1 <0>         0.1718
     13 N2          0.2252   -4.2210   -0.0618 N.pl3     1 <0>        -0.3186
     14 N3          1.3415   -5.0654    0.0014 N.2       1 <0>        -0.2940
     15 C12         0.9330   -6.3123   -0.0124 C.2       1 <0>         0.1009
     16 C13        -0.4562   -6.3305   -0.0732 C.2       1 <0>        -0.2805
     17 C14        -3.3981   -5.2058   -0.2444 C.1       1 <0>         0.2723
     18 N4         -4.3366   -5.8442   -0.2892 N.1       1 <0>        -0.4282
     19 N5         -3.5251   -2.3669   -0.2786 N.pl3     1 <0>        -0.7184
     20 C15        -3.5967   -0.9037   -0.2960 C.3       1 <0>         0.1349
     21 C16        -3.5742   -0.3749    1.1395 C.3       1 <0>        -0.1352
     22 C17        -4.7727   -0.9350    1.9082 C.3       1 <0>        -0.1432
     23 C18        -6.0684   -0.4959    1.2231 C.3       1 <0>         0.0246
     24 C19        -6.0908   -1.0247   -0.2124 C.3       1 <0>        -0.1475
     25 C20        -4.8924   -0.4646   -0.9811 C.3       1 <0>        -0.1249
     26 N6         -7.2191   -1.0337    1.9611 N.4       1 <0>        -0.6377
     27 Cl1         3.7405   -0.4943   -0.2895 Cl        1 <0>        -0.0623
     28 H1          2.3963   -3.7510    4.0451 H         1 <0>         0.1319
     29 H2          4.5289   -2.5230    4.0381 H         1 <0>         0.1360
     30 H3          5.1232   -1.0897    2.1280 H         1 <0>         0.1402
     31 H4          0.8471   -3.5435    2.1445 H         1 <0>         0.1211
     32 H5          1.4282   -1.4488   -0.7349 H         1 <0>         0.4271
     33 H6         -1.1687   -1.1717   -0.1615 H         1 <0>         0.1651
     34 H7          1.5713   -7.1826    0.0256 H         1 <0>         0.1986
     35 H8         -1.0826   -7.2099   -0.0988 H         1 <0>         0.1568
     36 H9         -4.3392   -2.8928   -0.3180 H         1 <0>         0.4034
     37 H10        -2.7429   -0.5047   -0.8436 H         1 <0>         0.1061
     38 H11        -2.6512   -0.6877    1.6275 H         1 <0>         0.0944
     39 H12        -3.6275    0.7137    1.1265 H         1 <0>         0.0916
     40 H13        -4.7195   -2.0236    1.9211 H         1 <0>         0.0883
     41 H14        -4.7567   -0.5582    2.9308 H         1 <0>         0.0933
     42 H15        -6.1216    0.5927    1.2101 H         1 <0>         0.1465
     43 H16        -6.0376   -2.1134   -0.1994 H         1 <0>         0.0835
     44 H17        -7.0139   -0.7119   -0.7005 H         1 <0>         0.0976
     45 H18        -4.9456    0.6240   -0.9941 H         1 <0>         0.0983
     46 H19        -4.9084   -0.8414   -2.0038 H         1 <0>         0.0967
     47 H20        -7.2043   -0.6849    2.9078 H         1 <0>         0.4378
     48 H21        -8.0735   -0.7441    1.5093 H         1 <0>         0.4373
     49 H22        -7.1698   -2.0414    1.9731 H         1 <0>         0.4335
@<TRIPOS>BOND
     1    1    6 ar
     2    1    2 ar
     3    1   28 1
     4    2    3 ar
     5    2   29 1
     6    3    4 ar
     7    3   30 1
     8    4    5 ar
     9    4   27 1
    10    5    6 ar
    11    5    7 1
    12    6   31 1
    13    7    8 1
    14    7   32 1
    15    8   13 1
    16    8    9 2
    17    9   10 1
    18    9   33 1
    19   10   11 2
    20   10   19 1
    21   11   12 1
    22   11   17 1
    23   12   16 2
    24   12   13 1
    25   13   14 1
    26   14   15 2
    27   15   16 1
    28   15   34 1
    29   16   35 1
    30   17   18 3
    31   19   20 1
    32   19   36 1
    33   20   25 1
    34   20   21 1
    35   20   37 1
    36   21   22 1
    37   21   38 1
    38   21   39 1
    39   22   23 1
    40   22   40 1
    41   22   41 1
    42   23   24 1
    43   23   26 1
    44   23   42 1
    45   24   25 1
    46   24   43 1
    47   24   44 1
    48   25   45 1
    49   25   46 1
    50   26   47 1
    51   26   48 1
    52   26   49 1
@<TRIPOS>MOLECULE
ZINC25898367
   45    46     0     0     0
SMALL
USER_CHARGES

@<TRIPOS>ATOM
      1 C1         -0.0464    1.3112   -2.6828 C.3       1 <0>        -0.1855
      2 C2         -0.7047    1.8578   -1.4144 C.3       1 <0>         0.0055
      3 H1         -0.1359    1.5358   -0.5421 H         1 <0>         0.1748
      4 C3         -0.7292    3.3636   -1.4702 C.2       1 <0>         0.5144
      5 O1         -1.7872    3.9544   -1.4331 O.2       1 <0>        -0.4496
      6 N1          0.4250    4.0535   -1.5613 N.am      1 <0>        -0.6745
      7 C4          0.4031    5.4001   -1.6112 C.2       1 <0>         0.6966
      8 O2         -0.6576    5.9924   -1.5740 O.2       1 <0>        -0.5190
      9 N2          1.5573    6.0900   -1.7022 N.am      1 <0>        -0.8448
     10 N3         -2.0793    1.3489   -1.3178 N.4       1 <0>        -0.4987
     11 C5         -2.0504   -0.1093   -1.1431 C.3       1 <0>        -0.0063
     12 C6         -3.4825   -0.6460   -1.0980 C.3       1 <0>        -0.0356
     13 C7         -4.2873    0.0867   -0.0048 C.3       1 <0>        -0.1344
     14 C8         -5.0228    1.2165   -0.7674 C.3       1 <0>        -0.1419
     15 C9         -5.4064    0.5334   -2.1036 C.3       1 <0>        -0.1331
     16 C10        -4.1940   -0.3620   -2.4325 C.3       1 <0>        -0.1301
     17 C11        -3.4696   -2.1281   -0.8251 C.ar      1 <0>        -0.0825
     18 C12        -2.2691   -2.7838   -0.6262 C.ar      1 <0>        -0.1301
     19 C13        -2.2572   -4.1433   -0.3759 C.ar      1 <0>        -0.1092
     20 C14        -3.4460   -4.8469   -0.3240 C.ar      1 <0>        -0.1090
     21 C15        -4.6466   -4.1910   -0.5221 C.ar      1 <0>        -0.1069
     22 C16        -4.6587   -2.8307   -0.7682 C.ar      1 <0>        -0.1059
     23 H2          0.9736    1.6888   -2.7544 H         1 <0>         0.1142
     24 H3         -0.0286    0.2220   -2.6424 H         1 <0>         0.1039
     25 H4         -0.6152    1.6332   -3.5550 H         1 <0>         0.0938
     26 H5          1.2715    3.5808   -1.5909 H         1 <0>         0.4190
     27 H6          2.4038    5.6173   -1.7319 H         1 <0>         0.4051
     28 H7          1.5415    7.0592   -1.7382 H         1 <0>         0.4306
     29 H8         -2.5403    1.7734   -0.5269 H         1 <0>         0.4350
     30 H9         -1.5178   -0.5648   -1.9779 H         1 <0>         0.1435
     31 H10        -1.5414   -0.3536   -0.2107 H         1 <0>         0.1428
     32 H11        -5.0048   -0.5903    0.4590 H         1 <0>         0.1014
     33 H12        -3.6172    0.5063    0.7455 H         1 <0>         0.0742
     34 H13        -5.9140    1.5320   -0.2250 H         1 <0>         0.0930
     35 H14        -4.3567    2.0613   -0.9428 H         1 <0>         0.0578
     36 H15        -6.3046   -0.0713   -1.9787 H         1 <0>         0.0842
     37 H16        -5.5531    1.2792   -2.8849 H         1 <0>         0.0812
     38 H17        -3.5191    0.1582   -3.1122 H         1 <0>         0.0647
     39 H18        -4.5308   -1.2960   -2.8823 H         1 <0>         0.0961
     40 H19        -1.3403   -2.2341   -0.6667 H         1 <0>         0.1191
     41 H20        -1.3192   -4.6557   -0.2211 H         1 <0>         0.1284
     42 H21        -3.4367   -5.9091   -0.1292 H         1 <0>         0.1293
     43 H22        -5.5753   -4.7407   -0.4819 H         1 <0>         0.1300
     44 H23        -5.5969   -2.3176   -0.9192 H         1 <0>         0.1266
     45 H24        -2.5823    1.5766   -2.1623 H         1 <0>         0.4321
@<TRIPOS>BOND
     1    1    2 1
     2    1   23 1
     3    1   24 1
     4    1   25 1
     5    2    3 1
     6    2    4 1
     7    2   10 1
     8    4    5 2
     9    4    6 am
    10    6    7 am
    11    6   26 1
    12    7    8 2
    13    7    9 am
    14    9   27 1
    15    9   28 1
    16   10   11 1
    17   10   29 1
    18   10   45 1
    19   11   12 1
    20   11   30 1
    21   11   31 1
    22   12   16 1
    23   12   13 1
    24   12   17 1
    25   13   14 1
    26   13   32 1
    27   13   33 1
    28   14   15 1
    29   14   34 1
    30   14   35 1
    31   15   16 1
    32   15   36 1
    33   15   37 1
    34   16   38 1
    35   16   39 1
    36   17   22 ar
    37   17   18 ar
    38   18   19 ar
    39   18   40 1
    40   19   20 ar
    41   19   41 1
    42   20   21 ar
    43   20   42 1
    44   21   22 ar
    45   21   43 1
    46   22   44 1
@<TRIPOS>MOLECULE
ZINC63407811
   56    58     0     0     0
SMALL
USER_CHARGES

@<TRIPOS>ATOM
      1 C1         -0.9558    0.0708    0.0877 C.ar      1 <0>        -0.1278
      2 C2         -0.6997   -1.1106    0.7590 C.ar      1 <0>        -0.0985
      3 C3          0.5718   -1.6497    0.7507 C.ar      1 <0>        -0.1191
      4 C4          1.5937   -1.0040    0.0671 C.ar      1 <0>         0.1495
      5 C5          1.3333    0.1823   -0.6061 C.ar      1 <0>        -0.1424
      6 C6          0.0596    0.7162   -0.5940 C.ar      1 <0>        -0.0978
      7 N1          2.8833   -1.5474    0.0571 N.am      1 <0>        -0.6777
      8 C7          3.0513   -2.8845    0.0790 C.2       1 <0>         0.7163
      9 O1          2.0853   -3.6198    0.0125 O.2       1 <0>        -0.5431
     10 N2          4.2902   -3.4065    0.1747 N.am      1 <0>        -0.5376
     11 N3          5.4033   -2.5592    0.2513 N.am      1 <0>        -0.5333
     12 C8          6.6422   -3.0813    0.3469 C.2       1 <0>         0.7202
     13 O2          7.6083   -2.3460    0.4134 O.2       1 <0>        -0.5614
     14 N4          6.8103   -4.4183    0.3688 N.am      1 <0>        -0.7398
     15 C9          8.1569   -4.9857    0.4728 C.3       1 <0>         0.1544
     16 C10         8.7789   -5.0874   -0.9229 C.3       1 <0>        -0.1622
     17 C11        10.1523   -5.7535   -0.8160 C.3       1 <0>        -0.0070
     18 N5         10.0051   -7.0978   -0.2452 N.4       1 <0>        -0.3859
     19 C12         9.4761   -7.0037    1.1207 C.3       1 <0>        -0.0008
     20 C13         8.0766   -6.3857    1.0883 C.3       1 <0>        -0.1581
     21 C14        11.3149   -7.7622   -0.2168 C.3       1 <0>        -0.0044
     22 C15        11.7941   -8.0064   -1.6492 C.3       1 <0>        -0.1204
     23 C16        10.8721   -9.0267   -2.3482 C.3       1 <0>        -0.1410
     24 C17        11.8326   -9.8689   -3.2241 C.3       1 <0>        -0.1244
     25 C18        13.0882   -9.9989   -2.3266 C.3       1 <0>        -0.1300
     26 C19        13.2032   -8.6246   -1.6354 C.3       1 <0>        -0.1169
     27 H1         -1.9519    0.4881    0.0920 H         1 <0>         0.1275
     28 H2         -1.4948   -1.6121    1.2908 H         1 <0>         0.1291
     29 H3          0.7713   -2.5723    1.2755 H         1 <0>         0.1350
     30 H4          2.1260    0.6870   -1.1383 H         1 <0>         0.1261
     31 H5         -0.1436    1.6386   -1.1177 H         1 <0>         0.1302
     32 H6          3.6562   -0.9618    0.0344 H         1 <0>         0.4035
     33 H7          4.4111   -4.3688    0.1904 H         1 <0>         0.4320
     34 H8          5.2824   -1.5969    0.2355 H         1 <0>         0.4373
     35 H9          6.0396   -5.0049    0.3158 H         1 <0>         0.3996
     36 H10         8.7746   -4.3455    1.1026 H         1 <0>         0.1111
     37 H11         8.1335   -5.6853   -1.5664 H         1 <0>         0.0909
     38 H12         8.8906   -4.0888   -1.3453 H         1 <0>         0.1198
     39 H13        10.5981   -5.8273   -1.8080 H         1 <0>         0.1358
     40 H14        10.7970   -5.1547   -0.1726 H         1 <0>         0.1342
     41 H15         9.4226   -8.0004    1.5586 H         1 <0>         0.1376
     42 H16        10.1352   -6.3782    1.7228 H         1 <0>         0.1347
     43 H17         7.6863   -6.3150    2.1036 H         1 <0>         0.1222
     44 H18         7.4166   -7.0106    0.4866 H         1 <0>         0.0955
     45 H19        12.0328   -7.1281    0.3034 H         1 <0>         0.1320
     46 H20        11.2275   -8.7155    0.3045 H         1 <0>         0.1328
     47 H21        11.8033   -7.0685   -2.2045 H         1 <0>         0.0964
     48 H22        10.3745   -9.6581   -1.6122 H         1 <0>         0.0735
     49 H23        10.1387   -8.5141   -2.9707 H         1 <0>         0.0742
     50 H24        11.4046  -10.8491   -3.4340 H         1 <0>         0.0771
     51 H25        12.0717   -9.3444   -4.1493 H         1 <0>         0.0753
     52 H26        12.9485  -10.7874   -1.5870 H         1 <0>         0.0714
     53 H27        13.9721  -10.1959   -2.9333 H         1 <0>         0.0771
     54 H28        13.8960   -7.9871   -2.1848 H         1 <0>         0.0810
     55 H29        13.5456   -8.7506   -0.6083 H         1 <0>         0.0748
     56 H30         9.3694   -7.6361   -0.8147 H         1 <0>         0.4216
@<TRIPOS>BOND
     1    1    6 ar
     2    1    2 ar
     3    1   27 1
     4    2    3 ar
     5    2   28 1
     6    3    4 ar
     7    3   29 1
     8    4    5 ar
     9    4    7 1
    10    5    6 ar
    11    5   30 1
    12    6   31 1
    13    7    8 am
    14    7   32 1
    15    8    9 2
    16    8   10 am
    17   10   11 1
    18   10   33 1
    19   11   12 am
    20   11   34 1
    21   12   13 2
    22   12   14 am
    23   14   15 1
    24   14   35 1
    25   15   20 1
    26   15   16 1
    27   15   36 1
    28   16   17 1
    29   16   37 1
    30   16   38 1
    31   17   18 1
    32   17   39 1
    33   17   40 1
    34   18   19 1
    35   18   21 1
    36   18   56 1
    37   19   20 1
    38   19   41 1
    39   19   42 1
    40   20   43 1
    41   20   44 1
    42   21   22 1
    43   21   45 1
    44   21   46 1
    45   22   26 1
    46   22   23 1
    47   22   47 1
    48   23   24 1
    49   23   48 1
    50   23   49 1
    51   24   25 1
    52   24   50 1
    53   24   51 1
    54   25   26 1
    55   25   52 1
    56   25   53 1
    57   26   54 1
    58   26   55 1
@<TRIPOS>MOLECULE
ZINC13245806
   44    46     0     0     0
SMALL
USER_CHARGES
5-chloro-2-[[2-[[5-[(3R)-1,1-dioxothiolan-3-yl]-4-methyl-1,2,4-triazol-3-yl]sulfanyl]acetyl]amino]benzoic acid
@<TRIPOS>ATOM
      1 C1         -1.4922   -0.0655   -3.7645 C.3       1 <0>         0.0660
      2 N1         -0.2606    0.7025   -3.5650 N.pl3     1 <0>        -0.4611
      3 C2          0.0648    1.4753   -2.4847 C.2       1 <0>         0.1786
      4 N2          1.2469    1.9760   -2.7080 N.2       1 <0>        -0.2682
      5 N3          1.6857    1.5794   -3.8491 N.2       1 <0>        -0.2858
      6 C3          0.7994    0.7974   -4.4204 C.2       1 <0>         0.1489
      7 S1          0.9517    0.0133   -5.9910 S.3       1 <0>         0.0847
      8 C4          2.5892    0.6082   -6.4817 C.3       1 <0>        -0.1421
      9 C5          2.9418    0.0490   -7.8360 C.2       1 <0>         0.5328
     10 O1          2.1627   -0.6800   -8.4126 O.2       1 <0>        -0.5270
     11 N4          4.1229    0.3589   -8.4063 N.am      1 <0>        -0.6322
     12 C6          4.4891   -0.2306   -9.6142 C.ar      1 <0>         0.1753
     13 C7          3.5262   -0.5070  -10.5755 C.ar      1 <0>        -0.1268
     14 C8          3.8913   -1.0863  -11.7739 C.ar      1 <0>        -0.0952
     15 C9          5.2172   -1.4070  -12.0232 C.ar      1 <0>        -0.0619
     16 C10         6.1862   -1.1446  -11.0781 C.ar      1 <0>        -0.0497
     17 C11         5.8318   -0.5531   -9.8626 C.ar      1 <0>        -0.1275
     18 C12         6.8623   -0.2701   -8.8476 C.2       1 <0>         0.4962
     19 O2          6.5391    0.1529   -7.7553 O.co2     1 <0>        -0.6288
     20 Cl1         5.6591   -2.1419  -13.5327 Cl        1 <0>        -0.0866
     21 C13        -0.7837    1.7007   -1.2599 C.3       1 <0>         0.0045
     22 H1         -1.7178    1.1479   -1.3601 H         1 <0>         0.1098
     23 C14        -0.0275    1.2042   -0.0165 C.3       1 <0>        -0.1241
     24 C15        -0.7728    1.7279    1.2443 C.3       1 <0>        -0.5722
     25 S2         -1.1953    3.4368    0.7009 S.o2      1 <0>         2.3745
     26 O3         -0.1643    4.3224    1.1157 O.2       1 <0>        -0.9254
     27 O4         -2.5422    3.7162    1.0571 O.2       1 <0>        -0.9370
     28 C16        -1.0928    3.2110   -1.1214 C.3       1 <0>        -0.5761
     29 H2         -2.2323    0.5585   -4.2655 H         1 <0>         0.0890
     30 H3         -1.2793   -0.9407   -4.3783 H         1 <0>         0.0989
     31 H4         -1.8813   -0.3855   -2.7979 H         1 <0>         0.0953
     32 H5          2.5811    1.6971   -6.5292 H         1 <0>         0.1299
     33 H6          3.3285    0.2819   -5.7502 H         1 <0>         0.1353
     34 H7          4.7180    0.9924   -7.9758 H         1 <0>         0.4292
     35 H8          2.4908   -0.2644  -10.3871 H         1 <0>         0.1450
     36 H9          3.1390   -1.2955  -12.5200 H         1 <0>         0.1305
     37 H10         7.2176   -1.3962  -11.2768 H         1 <0>         0.1457
     38 H11        -0.0095    0.1144   -0.0074 H         1 <0>         0.1044
     39 H12         0.9922    1.5891   -0.0277 H         1 <0>         0.1054
     40 H13        -1.6714    1.1435    1.4421 H         1 <0>         0.1411
     41 H14        -0.1151    1.7421    2.1135 H         1 <0>         0.1472
     42 H15        -0.2849    3.8108   -1.5404 H         1 <0>         0.1522
     43 H16        -2.0434    3.4560   -1.5953 H         1 <0>         0.1459
     44 O5          8.1628   -0.4806   -9.1308 O.co2     1 <0>        -0.7387
@<TRIPOS>BOND
     1    1    2 1
     2    1   29 1
     3    1   30 1
     4    1   31 1
     5    2    6 1
     6    2    3 1
     7    3    4 2
     8    3   21 1
     9    4    5 1
    10    5    6 2
    11    6    7 1
    12    7    8 1
    13    8    9 1
    14    8   32 1
    15    8   33 1
    16    9   10 2
    17    9   11 am
    18   11   12 1
    19   11   34 1
    20   12   17 ar
    21   12   13 ar
    22   13   14 ar
    23   13   35 1
    24   14   15 ar
    25   14   36 1
    26   15   16 ar
    27   15   20 1
    28   16   17 ar
    29   16   37 1
    30   17   18 1
    31   18   19 2
    32   18   44 1
    33   21   22 1
    34   21   28 1
    35   21   23 1
    36   23   24 1
    37   23   38 1
    38   23   39 1
    39   24   25 1
    40   24   40 1
    41   24   41 1
    42   25   26 2
    43   25   27 2
    44   25   28 1
    45   28   42 1
    46   28   43 1
@<TRIPOS>MOLECULE
ZINC38740567
   50    53     0     0     0
SMALL
USER_CHARGES

@<TRIPOS>ATOM
      1 C1          0.7158    1.5076   -0.0570 C.3       1 <0>        -0.0655
      2 C2          0.5619    0.0085   -0.0481 C.2       1 <0>         0.0758
      3 C3          0.4553   -0.8084   -1.1781 C.2       1 <0>        -0.2804
      4 C4          0.3315   -2.0950   -0.7533 C.2       1 <0>         0.3342
      5 N1          0.3604   -2.0794    0.6090 N.pl3     1 <0>        -0.3112
      6 N2          0.5112   -0.7481    1.0178 N.2       1 <0>        -0.2489
      7 C5          0.2623   -3.1898    1.4458 C.ar      1 <0>         0.5684
      8 N3          0.1326   -4.3925    0.9089 N.ar      1 <0>        -0.6447
      9 C6          0.0371   -5.4702    1.6777 C.ar      1 <0>         0.4666
     10 O1         -0.0950   -6.7000    1.1241 O.3       1 <0>        -0.6847
     11 C7          0.0753   -5.3188    3.0635 C.ar      1 <0>        -0.3060
     12 C8          0.2117   -4.0456    3.5837 C.ar      1 <0>         0.1836
     13 N4          0.3065   -3.0153    2.7566 N.ar      1 <0>        -0.5833
     14 C9          0.2577   -3.8325    5.0748 C.3       1 <0>        -0.0943
     15 C10        -0.0304   -6.5158    3.9729 C.3       1 <0>        -0.0679
     16 N5          0.1990   -3.2219   -1.5627 N.am      1 <0>        -0.6281
     17 C11         0.1858   -3.0903   -2.9040 C.2       1 <0>         0.5286
     18 O2          0.2891   -1.9913   -3.4066 O.2       1 <0>        -0.5199
     19 C12         0.0425   -4.3088   -3.7792 C.3       1 <0>        -0.1520
     20 C13        -0.0956   -3.8742   -5.2397 C.3       1 <0>         0.1279
     21 H1          0.7524   -3.2415   -5.5017 H         1 <0>         0.1369
     22 C14        -1.3992   -3.0581   -5.3995 C.3       1 <0>        -0.0862
     23 S1         -2.5206   -4.4150   -5.9414 S.3       1 <0>        -0.0277
     24 C15        -1.2781   -5.5403   -6.5477 C.2       1 <0>         0.3806
     25 N6         -0.0825   -5.0664   -6.0946 N.am      1 <0>        -0.5385
     26 C16         1.0348   -5.7561   -6.4783 C.2       1 <0>         0.5300
     27 O3          2.1393   -5.3676   -6.1350 O.2       1 <0>        -0.5232
     28 C17         0.9113   -6.9069   -7.2640 C.2       1 <0>        -0.2582
     29 C18        -0.3285   -7.3275   -7.6502 C.2       1 <0>         0.1676
     30 N7         -1.3877   -6.6254   -7.2803 N.2       1 <0>        -0.5072
     31 C19         2.1380   -7.6764   -7.6813 C.3       1 <0>        -0.0849
     32 H2          1.7749    1.7639   -0.0847 H         1 <0>         0.0755
     33 H3          0.2195    1.9186   -0.9361 H         1 <0>         0.0770
     34 H4          0.2645    1.9246    0.8433 H         1 <0>         0.0720
     35 H5          0.4685   -0.4768   -2.2058 H         1 <0>         0.1774
     36 H6          1.2912   -3.8838    5.4174 H         1 <0>         0.0712
     37 H7         -0.1565   -2.8533    5.3149 H         1 <0>         0.0697
     38 H8         -0.3283   -4.6063    5.5707 H         1 <0>         0.0733
     39 H9          0.9665   -6.9075    4.1753 H         1 <0>         0.0479
     40 H10        -0.5016   -6.2197    4.9101 H         1 <0>         0.0487
     41 H11        -0.6325   -7.2862    3.4910 H         1 <0>         0.0616
     42 H12         0.1164   -4.1008   -1.1607 H         1 <0>         0.4378
     43 H13         0.9242   -4.9403   -3.6698 H         1 <0>         0.1185
     44 H14        -0.8443   -4.8680   -3.4811 H         1 <0>         0.1135
     45 H15        -1.7208   -2.6289   -4.4506 H         1 <0>         0.1483
     46 H16        -1.2991   -2.2916   -6.1679 H         1 <0>         0.1277
     47 H17        -0.4425   -8.2193   -8.2487 H         1 <0>         0.1777
     48 H18         2.3636   -8.4348   -6.9317 H         1 <0>         0.0711
     49 H19         1.9554   -8.1580   -8.6420 H         1 <0>         0.0704
     50 H20         2.9822   -6.9929   -7.7722 H         1 <0>         0.0732
@<TRIPOS>BOND
     1    1    2 1
     2    1   32 1
     3    1   33 1
     4    1   34 1
     5    2    6 2
     6    2    3 1
     7    3    4 2
     8    3   35 1
     9    4    5 1
    10    4   16 1
    11    5    6 1
    12    5    7 1
    13    7   13 ar
    14    7    8 ar
    15    8    9 ar
    16    9   10 1
    17    9   11 ar
    18   11   12 ar
    19   11   15 1
    20   12   13 ar
    21   12   14 1
    22   14   36 1
    23   14   37 1
    24   14   38 1
    25   15   39 1
    26   15   40 1
    27   15   41 1
    28   16   17 am
    29   16   42 1
    30   17   18 2
    31   17   19 1
    32   19   20 1
    33   19   43 1
    34   19   44 1
    35   20   21 1
    36   20   25 1
    37   20   22 1
    38   22   23 1
    39   22   45 1
    40   22   46 1
    41   23   24 1
    42   24   30 2
    43   24   25 1
    44   25   26 am
    45   26   27 2
    46   26   28 1
    47   28   29 2
    48   28   31 1
    49   29   30 1
    50   29   47 1
    51   31   48 1
    52   31   49 1
    53   31   50 1
@<TRIPOS>MOLECULE
ZINC46659042
   47    51     0     0     0
SMALL
USER_CHARGES

@<TRIPOS>ATOM
      1 C1         -0.5023   -0.4084    0.8037 C.ar      1 <0>        -0.1251
      2 C2          0.4392    0.5618    0.8704 C.ar      1 <0>        -0.0050
      3 C3          1.8113    0.2376    0.6916 C.ar      1 <0>         0.0508
      4 C4          2.1676   -1.1537    0.4381 C.ar      1 <0>         0.1322
      5 C5          1.1254   -2.1183    0.3816 C.ar      1 <0>        -0.6429
      6 C6         -0.1616   -1.7392    0.5611 C.ar      1 <0>         0.0449
      7 S1          1.5093   -3.8109    0.0778 S.o2      1 <0>         2.6944
      8 O1          2.5617   -4.1549    0.9685 O.2       1 <0>        -0.9369
      9 O2          0.2723   -4.5099    0.0539 O.2       1 <0>        -0.9510
     10 N1          2.1351   -3.9039   -1.4526 N.pl3     1 <0>        -0.9895
     11 C7          1.2544   -4.1202   -2.6090 C.3       1 <0>         0.1021
     12 C8          1.4906   -2.9935   -3.6224 C.3       1 <0>         0.0795
     13 N2          2.9367   -2.8608   -3.8485 N.am      1 <0>        -0.6062
     14 C9          3.8174   -2.6445   -2.6921 C.3       1 <0>         0.1032
     15 C10         3.5806   -3.7656   -1.6793 C.3       1 <0>         0.1078
     16 C11         3.4460   -2.9365   -5.0940 C.2       1 <0>         0.5685
     17 O3          4.6338   -2.7568   -5.2767 O.2       1 <0>        -0.5263
     18 C12         2.5578   -3.2387   -6.2404 C.ar      1 <0>        -0.0708
     19 C13         1.3885   -2.4861   -6.4312 C.ar      1 <0>        -0.1760
     20 C14         0.5561   -2.7446   -7.4772 C.ar      1 <0>        -0.0060
     21 C15         0.8649   -3.7736   -8.3782 C.ar      1 <0>        -0.2279
     22 C16         2.0442   -4.5429   -8.1974 C.ar      1 <0>         0.2218
     23 C17         2.8918   -4.2577   -7.1172 C.ar      1 <0>        -0.0856
     24 N3          2.3251   -5.5229   -9.0680 N.2       1 <0>        -0.5520
     25 C18         1.5171   -5.7757  -10.0862 C.2       1 <0>         0.5097
     26 N4          0.3902   -5.0770  -10.3015 N.pl3     1 <0>        -0.6020
     27 H1         -0.1715   -5.2973  -11.0610 H         1 <0>         0.4206
     28 C19         0.0283   -4.0722   -9.4747 C.2       1 <0>         0.5047
     29 O4         -1.0999   -3.3737   -9.6913 O.3       1 <0>        -0.6129
     30 S2          1.9239   -7.0388  -11.1680 S.2       1 <0>        -0.7083
     31 N5          3.4796   -1.3399    0.2872 N.2       1 <0>        -0.5111
     32 S3          4.1468    0.1143    0.4559 S.3       1 <0>         0.6664
     33 N6          2.8671    1.0519    0.7230 N.2       1 <0>        -0.4924
     34 H2         -1.5405   -0.1470    0.9459 H         1 <0>         0.1532
     35 H3          0.1472    1.5842    1.0595 H         1 <0>         0.1507
     36 H4         -0.9424   -2.4839    0.5156 H         1 <0>         0.1618
     37 H5          1.4847   -5.0808   -3.0697 H         1 <0>         0.0892
     38 H6          0.2140   -4.1076   -2.2839 H         1 <0>         0.1056
     39 H7          0.9942   -3.2365   -4.5619 H         1 <0>         0.1184
     40 H8          1.0946   -2.0577   -3.2280 H         1 <0>         0.0734
     41 H9          4.8578   -2.6571   -3.0172 H         1 <0>         0.1069
     42 H10         3.5871   -1.6839   -2.2314 H         1 <0>         0.0630
     43 H11         4.0762   -3.5190   -0.7403 H         1 <0>         0.1133
     44 H12         3.9804   -4.7004   -2.0722 H         1 <0>         0.0830
     45 H13         1.1460   -1.6926   -5.7399 H         1 <0>         0.1260
     46 H14        -0.3407   -2.1582   -7.6125 H         1 <0>         0.1366
     47 H15         3.7952   -4.8303   -6.9678 H         1 <0>         0.1401
@<TRIPOS>BOND
     1    1    6 ar
     2    1    2 ar
     3    1   34 1
     4    2    3 ar
     5    2   35 1
     6    3   33 2
     7    3    4 ar
     8    4    5 ar
     9    4   31 2
    10    5    6 ar
    11    5    7 1
    12    6   36 1
    13    7    8 2
    14    7    9 2
    15    7   10 1
    16   10   15 1
    17   10   11 1
    18   11   12 1
    19   11   37 1
    20   11   38 1
    21   12   13 1
    22   12   39 1
    23   12   40 1
    24   13   14 1
    25   13   16 am
    26   14   15 1
    27   14   41 1
    28   14   42 1
    29   15   43 1
    30   15   44 1
    31   16   17 2
    32   16   18 1
    33   18   23 ar
    34   18   19 ar
    35   19   20 ar
    36   19   45 1
    37   20   21 ar
    38   20   46 1
    39   21   28 2
    40   21   22 ar
    41   22   23 ar
    42   22   24 2
    43   23   47 1
    44   24   25 1
    45   25   26 1
    46   25   30 2
    47   26   27 1
    48   26   28 1
    49   28   29 1
    50   31   32 1
    51   32   33 1
@<TRIPOS>MOLECULE
ZINC36353199
   48    52     0     0     0
SMALL
USER_CHARGES

@<TRIPOS>ATOM
      1 C1         -0.0184    1.5028    0.0103 C.3       1 <0>        -0.0699
      2 C2          0.0021   -0.0041    0.0020 C.2       1 <0>         0.0979
      3 C3          0.0079   -0.8059   -1.1238 C.2       1 <0>        -0.3009
      4 C4          0.0320   -2.1294   -0.7058 C.2       1 <0>         0.3098
      5 N1          0.0339   -2.1194    0.6480 N.pl3     1 <0>        -0.2475
      6 N2          0.0231   -0.7777    1.0637 N.2       1 <0>        -0.2884
      7 C5          0.0486   -3.2420    1.4819 C.ar      1 <0>         0.1401
      8 C6          0.5542   -3.1436    2.7778 C.ar      1 <0>        -0.0754
      9 C7          0.5476   -4.2823    3.5655 C.ar      1 <0>        -0.2152
     10 C8          0.0362   -5.4556    3.0142 C.ar      1 <0>         0.3591
     11 N3         -0.4229   -5.4549    1.7740 N.ar      1 <0>        -0.3316
     12 N4         -0.4220   -4.3984    1.0452 N.ar      1 <0>        -0.1749
     13 O1          0.0096   -6.5969    3.7486 O.3       1 <0>        -0.6885
     14 N5          0.0571   -3.1598   -1.5982 N.2       1 <0>        -0.5239
     15 C9          0.3444   -2.9127   -2.8411 C.2       1 <0>         0.3820
     16 C10         0.7165   -1.5522   -3.3534 C.3       1 <0>        -0.1002
     17 C11        -0.0116   -0.4413   -2.5870 C.3       1 <0>         0.0511
     18 H1          0.5011    0.5086   -2.7380 H         1 <0>         0.1085
     19 C12        -1.4357   -0.3366   -3.0685 C.ar      1 <0>        -0.0288
     20 C13        -1.9007    0.8549   -3.5918 C.ar      1 <0>        -0.1432
     21 C14        -3.2114    0.9568   -4.0371 C.ar      1 <0>         0.0862
     22 C15        -4.0556   -0.1423   -3.9579 C.ar      1 <0>         0.0110
     23 C16        -3.5841   -1.3394   -3.4293 C.ar      1 <0>         0.1436
     24 C17        -2.2722   -1.4341   -2.9910 C.ar      1 <0>        -0.1962
     25 O2         -4.4083   -2.4181   -3.3472 O.3       1 <0>        -0.3055
     26 C18        -3.8574   -3.6148   -2.7937 C.3       1 <0>         0.0264
     27 O3         -5.3428   -0.0661   -4.3964 O.3       1 <0>        -0.2962
     28 C19        -5.8858    1.2469   -4.5731 C.3       1 <0>         0.0190
     29 C20        -4.8529    2.0963   -5.3262 C.3       1 <0>         0.0203
     30 O4         -3.6534    2.1395   -4.5457 O.3       1 <0>        -0.3029
     31 O5          0.3065   -3.9357   -3.7193 O.3       1 <0>        -0.4639
     32 H2          1.0042    1.8801    0.0026 H         1 <0>         0.0759
     33 H3         -0.5455    1.8639   -0.8728 H         1 <0>         0.0762
     34 H4         -0.5286    1.8543    0.9071 H         1 <0>         0.0716
     35 H5          0.9394   -2.2079    3.1553 H         1 <0>         0.1281
     36 H6          0.9276   -4.2619    4.5762 H         1 <0>         0.1287
     37 H7          1.7922   -1.4133   -3.2453 H         1 <0>         0.1092
     38 H8          0.4549   -1.4860   -4.4095 H         1 <0>         0.1057
     39 H9         -1.2427    1.7091   -3.6541 H         1 <0>         0.1379
     40 H10        -1.9050   -2.3649   -2.5846 H         1 <0>         0.1406
     41 H11        -4.6181   -4.3954   -2.7862 H         1 <0>         0.1028
     42 H12        -3.0105   -3.9386   -3.3987 H         1 <0>         0.0561
     43 H13        -3.5233   -3.4232   -1.7740 H         1 <0>         0.0607
     44 H14        -6.8070    1.1888   -5.1529 H         1 <0>         0.1198
     45 H15        -6.0905    1.6940   -3.6004 H         1 <0>         0.0751
     46 H16        -4.6440    1.6461   -6.2966 H         1 <0>         0.0775
     47 H17        -5.2382    3.1066   -5.4642 H         1 <0>         0.1206
     48 H18         0.0605   -4.7837   -3.3249 H         1 <0>         0.4118
@<TRIPOS>BOND
     1    1    2 1
     2    1   32 1
     3    1   33 1
     4    1   34 1
     5    2    6 2
     6    2    3 1
     7    3   17 1
     8    3    4 2
     9    4    5 1
    10    4   14 1
    11    5    6 1
    12    5    7 1
    13    7   12 ar
    14    7    8 ar
    15    8    9 ar
    16    8   35 1
    17    9   10 ar
    18    9   36 1
    19   10   11 ar
    20   10   13 1
    21   11   12 ar
    22   14   15 2
    23   15   16 1
    24   15   31 1
    25   16   17 1
    26   16   37 1
    27   16   38 1
    28   17   18 1
    29   17   19 1
    30   19   24 ar
    31   19   20 ar
    32   20   21 ar
    33   20   39 1
    34   21   30 1
    35   21   22 ar
    36   22   23 ar
    37   22   27 1
    38   23   24 ar
    39   23   25 1
    40   24   40 1
    41   25   26 1
    42   26   41 1
    43   26   42 1
    44   26   43 1
    45   27   28 1
    46   28   29 1
    47   28   44 1
    48   28   45 1
    49   29   30 1
    50   29   46 1
    51   29   47 1
    52   31   48 1
@<TRIPOS>MOLECULE
ZINC39210600
   45    49     0     0     0
SMALL
USER_CHARGES

@<TRIPOS>ATOM
      1 C1          0.6922    1.4178   -0.4244 C.ar      1 <0>        -0.1612
      2 C2          1.9047    2.0608   -0.2801 C.ar      1 <0>        -0.0730
      3 C3          3.0863    1.3632   -0.0840 C.ar      1 <0>        -0.1353
      4 C4          3.0055   -0.0295   -0.0376 C.ar      1 <0>         0.2011
      5 C5          1.7687   -0.6697   -0.1855 C.ar      1 <0>        -0.1610
      6 C6          0.5978    0.0311   -0.3795 C.ar      1 <0>        -0.0552
      7 C7          2.0432   -2.1369   -0.0900 C.3       1 <0>         0.0632
      8 C8          1.3076   -2.7575    1.0981 C.3       1 <0>        -0.1207
      9 H1          0.2909   -2.3759    1.1922 H         1 <0>         0.1587
     10 C9          2.0962   -2.5903    2.3763 C.2       1 <0>         0.1848
     11 N1          2.4045   -3.7958    2.7726 N.2       1 <0>        -0.2777
     12 N2          1.9497   -4.7752    1.8896 N.2       1 <0>        -0.2499
     13 C10         1.3383   -4.2660    0.8633 C.2       1 <0>         0.2451
     14 O1          0.8592   -4.8070   -0.2778 O.3       1 <0>        -0.1966
     15 C11         1.1200   -4.0837   -1.3972 C.2       1 <0>         0.4459
     16 C12         1.6573   -2.8454   -1.3566 C.2       1 <0>        -0.2590
     17 C13         1.8721   -2.1655   -2.5984 C.1       1 <0>         0.2748
     18 N3          2.0425   -1.6262   -3.5836 N.1       1 <0>        -0.4328
     19 N4          0.8258   -4.6340   -2.6201 N.pl3     1 <0>        -0.8216
     20 C14         2.4466   -1.3244    3.0401 C.ar      1 <0>        -0.0189
     21 C15         1.9473   -0.1130    2.5513 C.ar      1 <0>        -0.0814
     22 C16         2.2799    1.0689    3.1783 C.ar      1 <0>        -0.0993
     23 C17         3.1067    1.0586    4.2893 C.ar      1 <0>        -0.0434
     24 C18         3.6050   -0.1373    4.7790 C.ar      1 <0>        -0.0605
     25 C19         3.2759   -1.3276    4.1661 C.ar      1 <0>         0.0225
     26 Br1         3.5580    2.6852    5.1414 Br        1 <0>        -0.0782
     27 C20         3.5389   -2.2262    0.1245 C.2       1 <0>         0.5318
     28 O2          4.1896   -3.2414    0.2548 O.2       1 <0>        -0.4821
     29 N5          4.0114   -0.9623    0.1426 N.am      1 <0>        -0.5058
     30 C21         5.4229   -0.6184    0.3312 C.3       1 <0>         0.0332
     31 C22         5.7059   -0.4465    1.8014 C.2       1 <0>         0.4831
     32 O3          4.8115   -0.5973    2.6161 O.co2     1 <0>        -0.6488
     33 O4          6.8293   -0.1566    2.1762 O.co2     1 <0>        -0.6927
     34 H2         -0.2029    2.0041   -0.5709 H         1 <0>         0.1233
     35 H3          1.9339    3.1396   -0.3215 H         1 <0>         0.1239
     36 H4          4.0303    1.8758    0.0278 H         1 <0>         0.1322
     37 H5         -0.3502   -0.4740   -0.4913 H         1 <0>         0.1333
     38 H6          0.4396   -5.5223   -2.6719 H         1 <0>         0.4146
     39 H7          1.0040   -4.1345   -3.4322 H         1 <0>         0.4276
     40 H8          1.3030   -0.1034    1.6846 H         1 <0>         0.1340
     41 H9          1.8950    2.0052    2.8019 H         1 <0>         0.1200
     42 H10         4.2495   -0.1378    5.6456 H         1 <0>         0.1206
     43 H11         3.6615   -2.2598    4.5517 H         1 <0>         0.1226
     44 H12         6.0480   -1.4170   -0.0681 H         1 <0>         0.0808
     45 H13         5.6434    0.3119   -0.1924 H         1 <0>         0.0778
@<TRIPOS>BOND
     1    1    6 ar
     2    1    2 ar
     3    1   34 1
     4    2    3 ar
     5    2   35 1
     6    3    4 ar
     7    3   36 1
     8    4   29 1
     9    4    5 ar
    10    5    6 ar
    11    5    7 1
    12    6   37 1
    13    7   16 1
    14    7    8 1
    15    7   27 1
    16    8    9 1
    17    8   13 1
    18    8   10 1
    19   10   11 2
    20   10   20 1
    21   11   12 1
    22   12   13 2
    23   13   14 1
    24   14   15 1
    25   15   16 2
    26   15   19 1
    27   16   17 1
    28   17   18 3
    29   19   38 1
    30   19   39 1
    31   20   25 ar
    32   20   21 ar
    33   21   22 ar
    34   21   40 1
    35   22   23 ar
    36   22   41 1
    37   23   24 ar
    38   23   26 1
    39   24   25 ar
    40   24   42 1
    41   25   43 1
    42   27   28 2
    43   27   29 am
    44   29   30 1
    45   30   31 1
    46   30   44 1
    47   30   45 1
    48   31   32 2
    49   31   33 1
@<TRIPOS>MOLECULE
ZINC05908800
   38    41     0     0     0
SMALL
USER_CHARGES
2-[3-[4-(carboxymethyl)-3-oxo-6,8-dioxa-2,4-diazabicyclo[3.3.0]oct-7-yl]-7-oxo-2,4-dioxa-6,8-diazabicyclo[3.3.0]oct-8-yl]acetic acid
@<TRIPOS>ATOM
      1 C1         -6.3224   -0.1811   -3.5878 C.3       1 <0>         0.0952
      2 C2         -6.7031    1.2763   -3.6325 C.2       1 <0>         0.4484
      3 O1         -6.7458    1.9211   -2.6116 O.co2     1 <0>        -0.6253
      4 N1         -6.0539   -0.5734   -2.2020 N.am      1 <0>        -0.5728
      5 C3         -4.8206   -0.5246   -1.5240 C.3       1 <0>         0.2760
      6 H1         -4.5519   -1.5667   -1.3508 H         1 <0>         0.0407
      7 C4         -5.2810   -0.1897   -0.0554 C.3       1 <0>         0.2164
      8 H2         -5.5476    0.8576    0.0867 H         1 <0>         0.1259
      9 N2         -6.4484   -1.0590   -0.0199 N.am      1 <0>        -0.7287
     10 C5         -6.9491   -1.0652   -1.2894 C.2       1 <0>         0.7325
     11 O2         -8.0617   -1.4623   -1.5773 O.2       1 <0>        -0.5475
     12 O3         -4.0810   -0.5287    0.6221 O.3       1 <0>        -0.3522
     13 C6         -3.0119   -0.1908   -0.3020 C.3       1 <0>         0.2398
     14 H3         -2.3402   -1.0416   -0.4156 H         1 <0>         0.1234
     15 O4         -3.6172    0.1372   -1.5915 O.3       1 <0>        -0.3173
     16 C7         -2.2336    1.0159    0.2261 C.3       1 <0>         0.2366
     17 H4         -2.9044    1.8677    0.3382 H         1 <0>         0.1259
     18 O5         -1.1591    1.3661   -0.6876 O.3       1 <0>        -0.3346
     19 C8         -0.0127    1.0858    0.0080 C.3       1 <0>         0.2566
     20 H5          0.0021   -0.0041    0.0020 H         1 <0>         0.0428
     21 C9         -0.4162    1.4549    1.4883 C.3       1 <0>         0.2376
     22 H6         -0.5544    2.5198    1.6757 H         1 <0>         0.1319
     23 O6         -1.6300    0.6900    1.5121 O.3       1 <0>        -0.3468
     24 N3          0.7765    0.8983    2.1312 N.am      1 <0>        -0.5931
     25 C10         1.8027    1.1033    1.2573 C.2       1 <0>         0.7277
     26 O7          2.9773    1.0280    1.5624 O.2       1 <0>        -0.5394
     27 N4          1.3599    1.4037   -0.0034 N.am      1 <0>        -0.7144
     28 C11         0.8515    0.2536    3.4446 C.3       1 <0>         0.1052
     29 C12         1.1398    1.2919    4.4981 C.2       1 <0>         0.4510
     30 O8          1.2694    2.4514    4.1840 O.co2     1 <0>        -0.6257
     31 H7         -5.4285   -0.3418   -4.1905 H         1 <0>         0.0907
     32 H8         -7.1406   -0.7827   -3.9837 H         1 <0>         0.0960
     33 H9         -6.7987   -1.5358    0.7488 H         1 <0>         0.4285
     34 H10         1.8782    1.7578   -0.7429 H         1 <0>         0.4258
     35 H11        -0.0984   -0.2335    3.6650 H         1 <0>         0.0920
     36 H12         1.6485   -0.4899    3.4395 H         1 <0>         0.0883
     37 O9         -6.9947    1.8581   -4.8065 O.co2     1 <0>        -0.7665
     38 O10         1.2527    0.9286    5.7853 O.co2     1 <0>        -0.7705
@<TRIPOS>BOND
     1    1    2 1
     2    1    4 1
     3    1   31 1
     4    1   32 1
     5    2    3 2
     6    2   37 1
     7    4   10 am
     8    4    5 1
     9    5    6 1
    10    5   15 1
    11    5    7 1
    12    7    8 1
    13    7    9 1
    14    7   12 1
    15    9   10 am
    16    9   33 1
    17   10   11 2
    18   12   13 1
    19   13   14 1
    20   13   15 1
    21   13   16 1
    22   16   17 1
    23   16   23 1
    24   16   18 1
    25   18   19 1
    26   19   20 1
    27   19   27 1
    28   19   21 1
    29   21   22 1
    30   21   23 1
    31   21   24 1
    32   24   25 am
    33   24   28 1
    34   25   26 2
    35   25   27 am
    36   27   34 1
    37   28   29 1
    38   28   35 1
    39   28   36 1
    40   29   30 2
    41   29   38 1
@<TRIPOS>MOLECULE
ZINC20095898
   37    38     0     0     0
SMALL
USER_CHARGES
(1S,2S,4R,5S)-4-chloro-5-(3-nitrophenyl)sulfonyl-cyclohexane-1,2-dicarboxylic acid
@<TRIPOS>ATOM
      1 C1         -6.3449    3.9931    1.8909 C.ar      1 <0>        -0.1224
      2 C2         -6.6618    2.6482    1.9377 C.ar      1 <0>        -0.0128
      3 C3         -5.7915    1.7142    1.4081 C.ar      1 <0>        -0.0766
      4 C4         -4.6043    2.1250    0.8306 C.ar      1 <0>         0.0385
      5 C5         -4.2879    3.4696    0.7830 C.ar      1 <0>        -0.6608
      6 C6         -5.1603    4.4041    1.3093 C.ar      1 <0>         0.0559
      7 S1         -2.7752    3.9931    0.0466 S.o2      1 <0>         2.5032
      8 O1         -2.5455    5.2923    0.5745 O.2       1 <0>        -0.8906
      9 O2         -1.8619    2.9351    0.3030 O.2       1 <0>        -0.9281
     10 C7         -3.1316    4.0942   -1.7291 C.3       1 <0>        -0.5800
     11 H1         -3.3654    3.1692   -2.2766 H         1 <0>         0.1524
     12 C8         -4.3481    4.9943   -1.9547 C.3       1 <0>        -0.0889
     13 C9         -4.0537    6.3947   -1.4131 C.3       1 <0>        -0.1483
     14 H2         -3.8496    6.3430   -0.3334 H         1 <0>         0.1048
     15 C10        -2.8436    6.9801   -2.1436 C.3       1 <0>        -0.0970
     16 H3         -3.0577    7.0569   -3.2198 H         1 <0>         0.0664
     17 C11        -1.6271    6.0799   -1.9181 C.3       1 <0>        -0.1390
     18 C12        -1.9215    4.6796   -2.4597 C.3       1 <0>         0.0036
     19 H4         -2.2685    4.8444   -3.4904 H         1 <0>         0.1321
     20 Cl1        -0.4880    3.6188   -2.1939 Cl        1 <0>        -0.1726
     21 C13        -2.5537    8.3594   -1.6102 C.2       1 <0>         0.4915
     22 O3         -3.2441    8.8262   -0.7354 O.co2     1 <0>        -0.6111
     23 O4         -1.5284    9.0693   -2.1068 O.co2     1 <0>        -0.8029
     24 C14        -5.2519    7.2813   -1.6353 C.2       1 <0>         0.4890
     25 O5         -5.1485    8.2791   -2.3088 O.co2     1 <0>        -0.6112
     26 O6         -6.4339    6.9626   -1.0849 O.co2     1 <0>        -0.8031
     27 N1         -6.1306    0.2743    1.4587 N.pl3     1 <0>         0.0372
     28 O7         -7.1766   -0.0875    1.9670 O.2       1 <0>        -0.1682
     29 O8         -5.3636   -0.5487    0.9919 O.3       1 <0>        -0.1645
     30 H5         -7.0250    4.7229    2.3048 H         1 <0>         0.1619
     31 H6         -7.5893    2.3274    2.3885 H         1 <0>         0.1576
     32 H7         -3.9244    1.3952    0.4165 H         1 <0>         0.1653
     33 H8         -4.9148    5.4551    1.2688 H         1 <0>         0.1749
     34 H9         -4.5642    5.0555   -3.0315 H         1 <0>         0.0812
     35 H10        -5.2181    4.5734   -1.4295 H         1 <0>         0.0823
     36 H11        -0.7571    6.5008   -2.4434 H         1 <0>         0.0914
     37 H12        -1.4109    6.0186   -0.8413 H         1 <0>         0.0892
@<TRIPOS>BOND
     1    1    6 ar
     2    1    2 ar
     3    1   30 1
     4    2    3 ar
     5    2   31 1
     6    3    4 ar
     7    3   27 1
     8    4    5 ar
     9    4   32 1
    10    5    6 ar
    11    5    7 1
    12    6   33 1
    13    7    8 2
    14    7    9 2
    15    7   10 1
    16   10   11 1
    17   10   18 1
    18   10   12 1
    19   12   13 1
    20   12   34 1
    21   12   35 1
    22   13   14 1
    23   13   15 1
    24   13   24 1
    25   15   16 1
    26   15   17 1
    27   15   21 1
    28   17   18 1
    29   17   36 1
    30   17   37 1
    31   18   19 1
    32   18   20 1
    33   21   22 2
    34   21   23 1
    35   24   25 2
    36   24   26 1
    37   27   28 2
    38   27   29 1
@<TRIPOS>MOLECULE
ZINC33609024
   44    47     0     0     0
SMALL
USER_CHARGES

@<TRIPOS>ATOM
      1 C1          0.0243    0.3404    1.2170 C.ar      1 <0>        -0.1340
      2 C2          0.9171    1.0318    0.4031 C.ar      1 <0>        -0.1087
      3 C3          2.2487    0.7370    0.4164 C.ar      1 <0>        -0.1001
      4 C4          2.7252   -0.2735    1.2590 C.ar      1 <0>         0.0279
      5 C5          1.8197   -0.9776    2.0871 C.ar      1 <0>        -0.1007
      6 C6          0.4561   -0.6490    2.0486 C.ar      1 <0>        -0.0936
      7 C7          2.3049   -1.9965    2.9371 C.ar      1 <0>         0.2530
      8 C8          3.6518   -2.3048    2.9614 C.ar      1 <0>        -0.2068
      9 C9          4.5631   -1.6356    2.1650 C.ar      1 <0>        -0.0254
     10 C10         4.1458   -0.6215    1.3049 C.ar      1 <0>        -0.0745
     11 N1          5.0429    0.0336    0.5231 N.2       1 <0>        -0.1373
     12 N2          6.0507   -0.6009    0.0273 N.2       1 <0>        -0.1119
     13 C11         6.0608   -1.9663    0.0187 C.ar      1 <0>         0.0756
     14 C12         4.8788   -2.6628   -0.1890 C.ar      1 <0>        -0.1285
     15 C13         4.8975   -4.0647   -0.1964 C.ar      1 <0>         0.0041
     16 C14         3.7199   -4.8061   -0.4042 C.ar      1 <0>        -0.1409
     17 C15         3.7719   -6.1660   -0.4059 C.ar      1 <0>        -0.0268
     18 C16         4.9762   -6.8376   -0.2041 C.ar      1 <0>        -0.6645
     19 C17         6.1355   -6.1533    0.0002 C.ar      1 <0>         0.0048
     20 C18         6.1232   -4.7488    0.0085 C.ar      1 <0>        -0.0848
     21 C19         7.3052   -4.0142    0.2165 C.ar      1 <0>         0.0103
     22 C20         7.2714   -2.6577    0.2150 C.ar      1 <0>        -0.6427
     23 S1          8.7601   -1.7502    0.4695 S.o2      1 <0>         2.6899
     24 O1          8.8885   -1.5428    1.9036 O.2       1 <0>        -1.0661
     25 O2          9.8450   -2.5607   -0.0616 O.2       1 <0>        -1.0650
     26 O3          8.6175   -0.4942   -0.2504 O.3       1 <0>        -1.0327
     27 S2          4.9989   -8.5994   -0.2128 S.o2      1 <0>         2.6991
     28 O4          6.0747   -9.0124    0.6751 O.2       1 <0>        -1.0625
     29 O5          3.6986   -9.0409    0.2672 O.2       1 <0>        -1.0669
     30 O6          5.2397   -9.0120   -1.5867 O.3       1 <0>        -1.0636
     31 N3          1.4238   -2.6914    3.7527 N.pl3     1 <0>        -0.8595
     32 H1         -1.0250    0.5947    1.1923 H         1 <0>         0.1194
     33 H2          0.5505    1.8117   -0.2479 H         1 <0>         0.1225
     34 H3          2.9316    1.2803   -0.2200 H         1 <0>         0.1372
     35 H4         -0.2475   -1.1772    2.6750 H         1 <0>         0.1192
     36 H5          4.0013   -3.0873    3.6186 H         1 <0>         0.1280
     37 H6          5.6087   -1.9021    2.2096 H         1 <0>         0.1337
     38 H7          3.9524   -2.1296   -0.3433 H         1 <0>         0.1285
     39 H8          2.7796   -4.2986   -0.5612 H         1 <0>         0.1215
     40 H9          2.8666   -6.7329   -0.5657 H         1 <0>         0.1309
     41 H10         7.0608   -6.6883    0.1555 H         1 <0>         0.1426
     42 H11         8.2408   -4.5305    0.3732 H         1 <0>         0.1474
     43 H12         0.4779   -2.4772    3.7382 H         1 <0>         0.3973
     44 H13         1.7537   -3.3915    4.3374 H         1 <0>         0.4046
@<TRIPOS>BOND
     1    1    6 ar
     2    1    2 ar
     3    1   32 1
     4    2    3 ar
     5    2   33 1
     6    3    4 ar
     7    3   34 1
     8    4   10 ar
     9    4    5 ar
    10    5    6 ar
    11    5    7 ar
    12    6   35 1
    13    7    8 ar
    14    7   31 1
    15    8    9 ar
    16    8   36 1
    17    9   10 ar
    18    9   37 1
    19   10   11 1
    20   11   12 2
    21   12   13 1
    22   13   22 ar
    23   13   14 ar
    24   14   15 ar
    25   14   38 1
    26   15   20 ar
    27   15   16 ar
    28   16   17 ar
    29   16   39 1
    30   17   18 ar
    31   17   40 1
    32   18   19 ar
    33   18   27 1
    34   19   20 ar
    35   19   41 1
    36   20   21 ar
    37   21   22 ar
    38   21   42 1
    39   22   23 1
    40   23   24 2
    41   23   25 2
    42   23   26 1
    43   27   28 2
    44   27   29 2
    45   27   30 1
    46   31   43 1
    47   31   44 1
@<TRIPOS>MOLECULE
ZINC51351586
   44    46     0     0     0
SMALL
USER_CHARGES

@<TRIPOS>ATOM
      1 C1         -0.4628    1.5506   -0.0889 C.3       1 <0>        -0.1387
      2 C2         -0.4369    0.0210   -0.1136 C.3       1 <0>        -0.1341
      3 C3          0.4988   -0.4909    0.9834 C.3       1 <0>         0.1246
      4 N1          0.5237   -1.9555    0.9598 N.pl3     1 <0>        -0.5347
      5 C4         -0.3863   -2.6683    1.7142 C.ar      1 <0>         0.3951
      6 C5         -0.3322   -4.0714    1.6658 C.ar      1 <0>        -0.2390
      7 C6         -1.2465   -4.8249    2.4243 C.ar      1 <0>         0.0467
      8 C7         -2.1768   -4.1240    3.1998 C.ar      1 <0>        -0.2019
      9 C8         -2.1601   -2.7397    3.1892 C.ar      1 <0>         0.1937
     10 N2         -1.2901   -2.0625    2.4673 N.ar      1 <0>        -0.5292
     11 C9         -3.1631   -1.9874    4.0252 C.3       1 <0>        -0.0940
     12 C10        -4.3791   -2.7623    4.5369 C.3       1 <0>        -0.1741
     13 C11        -4.5434   -1.7348    3.4153 C.3       1 <0>        -0.1635
     14 C12        -1.2255   -6.2995    2.4027 C.2       1 <0>         0.4002
     15 O1         -0.1137   -6.9640    2.7800 O.3       1 <0>        -0.5542
     16 C13        -2.3479   -7.0025    1.9948 C.2       1 <0>        -0.4297
     17 C14        -3.4842   -6.3003    1.4789 C.1       1 <0>         0.3066
     18 N3         -4.3856   -5.7432    1.0695 N.1       1 <0>        -0.5561
     19 C15        -2.3720   -8.4682    2.0918 C.2       1 <0>         0.5945
     20 O2         -1.4065   -9.0649    2.5301 O.2       1 <0>        -0.5476
     21 N4         -3.4636   -9.1519    1.6950 N.am      1 <0>        -0.7644
     22 C16        -3.4876  -10.6136    1.7917 C.3       1 <0>         0.1030
     23 C17         0.6892   -4.7046    0.8155 C.2       1 <0>         0.5264
     24 O3          0.7759   -5.9186    0.7399 O.2       1 <0>        -0.4990
     25 N5          1.5228   -3.9097    0.1248 N.2       1 <0>        -0.6723
     26 C18         1.4370   -2.6010    0.1925 C.2       1 <0>         0.6304
     27 O4          2.3021   -1.8635   -0.5312 O.3       1 <0>        -0.6881
     28 H1          0.5429    1.9339   -0.2612 H         1 <0>         0.0524
     29 H2         -1.1294    1.9153   -0.8704 H         1 <0>         0.0476
     30 H3         -0.8205    1.8923    0.8824 H         1 <0>         0.0508
     31 H4         -1.4426   -0.3622    0.0587 H         1 <0>         0.0588
     32 H5         -0.0792   -0.3207   -1.0849 H         1 <0>         0.0649
     33 H6          1.5046   -0.1076    0.8111 H         1 <0>         0.0838
     34 H7          0.1412   -0.1492    1.9547 H         1 <0>         0.0753
     35 H8         -2.9000   -4.6569    3.7994 H         1 <0>         0.1319
     36 H9         -2.7498   -1.2141    4.6727 H         1 <0>         0.1161
     37 H10        -4.4536   -3.8162    4.2688 H         1 <0>         0.1026
     38 H11        -4.7660   -2.4990    5.5213 H         1 <0>         0.0955
     39 H12        -5.0382   -0.7954    3.6618 H         1 <0>         0.0930
     40 H13        -4.7259   -2.1126    2.4093 H         1 <0>         0.0951
     41 H14        -4.2333   -8.6763    1.3455 H         1 <0>         0.3864
     42 H15        -2.6817  -11.0309    1.1880 H         1 <0>         0.0462
     43 H16        -3.3541  -10.9112    2.8317 H         1 <0>         0.0450
     44 H17        -4.4450  -10.9861    1.4272 H         1 <0>         0.0539
@<TRIPOS>BOND
     1    1    2 1
     2    1   28 1
     3    1   29 1
     4    1   30 1
     5    2    3 1
     6    2   31 1
     7    2   32 1
     8    3    4 1
     9    3   33 1
    10    3   34 1
    11    4   26 1
    12    4    5 1
    13    5   10 ar
    14    5    6 ar
    15    6    7 ar
    16    6   23 1
    17    7    8 ar
    18    7   14 1
    19    8    9 ar
    20    8   35 1
    21    9   10 ar
    22    9   11 1
    23   11   13 1
    24   11   12 1
    25   11   36 1
    26   12   13 1
    27   12   37 1
    28   12   38 1
    29   13   39 1
    30   13   40 1
    31   14   15 1
    32   14   16 2
    33   16   17 1
    34   16   19 1
    35   17   18 3
    36   19   20 2
    37   19   21 am
    38   21   22 1
    39   21   41 1
    40   22   42 1
    41   22   43 1
    42   22   44 1
    43   23   24 2
    44   23   25 1
    45   25   26 2
    46   26   27 1
@<TRIPOS>MOLECULE
ZINC16900468
   35    36     0     0     0
SMALL
USER_CHARGES

@<TRIPOS>ATOM
      1 C1         -0.3646   -2.7802    1.0692 C.3       1 <0>        -0.1210
      2 C2          1.0288   -2.4667    1.6178 C.3       1 <0>        -0.1281
      3 H1          1.0890   -2.7832    2.6591 H         1 <0>         0.0817
      4 C3          2.0648   -3.2032    0.8083 C.2       1 <0>         0.5192
      5 O1          1.8594   -3.4459   -0.3687 O.co2     1 <0>        -0.6795
      6 O2          3.1085   -3.5564    1.3304 O.co2     1 <0>        -0.6822
      7 S1          1.3337   -0.6818    1.5098 S.3       1 <0>        -0.1643
      8 C4          0.1441    0.0380    2.6748 C.3       1 <0>        -0.1213
      9 H2         -0.8611   -0.3315    2.4721 H         1 <0>         0.1322
     10 C5          0.5533   -0.2719    4.1292 C.3       1 <0>        -0.1488
     11 C6          0.7801    1.0969    4.7330 C.2       1 <0>         0.5305
     12 O3          1.1197    1.3123    5.8767 O.2       1 <0>        -0.4748
     13 N1          0.5468    2.0323    3.8041 N.am      1 <0>        -0.5105
     14 C7          0.1798    1.5492    2.6068 C.2       1 <0>         0.5497
     15 O4         -0.0802    2.2143    1.6272 O.2       1 <0>        -0.4509
     16 C8          0.6733    3.4054    4.0610 C.ar      1 <0>         0.0572
     17 C9         -0.4538    4.2127    4.0753 C.ar      1 <0>        -0.0632
     18 C10        -0.3321    5.5814    4.3304 C.ar      1 <0>        -0.1546
     19 C11         0.9249    6.1347    4.5712 C.ar      1 <0>        -0.0312
     20 C12         2.0557    5.3191    4.5564 C.ar      1 <0>        -0.1527
     21 C13         1.9245    3.9505    4.3056 C.ar      1 <0>        -0.0600
     22 C14         3.3885    5.8992    4.8107 C.2       1 <0>         0.5307
     23 O5          3.5018    7.0961    5.0346 O.co2     1 <0>        -0.6915
     24 O6          4.3797    5.1832    4.7975 O.co2     1 <0>        -0.6962
     25 C15        -1.5323    6.4399    4.3444 C.2       1 <0>         0.5318
     26 O7         -2.6343    5.9539    4.1326 O.co2     1 <0>        -0.7002
     27 O8         -1.4249    7.6374    4.5677 O.co2     1 <0>        -0.6903
     28 H3         -0.4574   -2.3764    0.0610 H         1 <0>         0.0704
     29 H4         -0.5102   -3.8601    1.0429 H         1 <0>         0.0546
     30 H5         -1.1188   -2.3275    1.7128 H         1 <0>         0.0366
     31 H6         -0.2494   -0.7931    4.6508 H         1 <0>         0.1182
     32 H7          1.4717   -0.8585    4.1526 H         1 <0>         0.1300
     33 H8         -1.4270    3.7834    3.8886 H         1 <0>         0.1199
     34 H9          1.0223    7.1920    4.7684 H         1 <0>         0.1356
     35 H10         2.7994    3.3173    4.2983 H         1 <0>         0.1227
@<TRIPOS>BOND
     1    1    2 1
     2    1   28 1
     3    1   29 1
     4    1   30 1
     5    2    3 1
     6    2    4 1
     7    2    7 1
     8    4    5 2
     9    4    6 1
    10    7    8 1
    11    8    9 1
    12    8   14 1
    13    8   10 1
    14   10   11 1
    15   10   31 1
    16   10   32 1
    17   11   12 2
    18   11   13 am
    19   13   14 am
    20   13   16 1
    21   14   15 2
    22   16   21 ar
    23   16   17 ar
    24   17   18 ar
    25   17   33 1
    26   18   19 ar
    27   18   25 1
    28   19   20 ar
    29   19   34 1
    30   20   21 ar
    31   20   22 1
    32   21   35 1
    33   22   23 2
    34   22   24 1
    35   25   26 2
    36   25   27 1
@<TRIPOS>MOLECULE
ZINC25725324
   50    50     0     0     0
SMALL
USER_CHARGES

@<TRIPOS>ATOM
      1 C1          0.7946    1.8324    0.7485 C.3       1 <0>         0.0711
      2 C2          2.2541    2.2347    0.9695 C.3       1 <0>         0.0633
      3 O1          2.5414    2.2348    2.3694 O.3       1 <0>        -0.3658
      4 C3          3.8666    2.6618    2.6908 C.3       1 <0>         0.0452
      5 H1          4.5879    2.0231    2.1810 H         1 <0>         0.0393
      6 C4          4.0805    2.5666    4.2028 C.3       1 <0>         0.0508
      7 H2          3.1430    2.7799    4.7165 H         1 <0>         0.0449
      8 O2          4.5191    1.2489    4.5398 O.3       1 <0>        -0.3671
      9 C5          4.3112    0.8997    5.9098 C.3       1 <0>         0.0749
     10 C6          4.4471   -0.6152    6.0762 C.3       1 <0>         0.0672
     11 O3          3.1710   -1.1762    6.3905 O.3       1 <0>        -0.3700
     12 C7          3.0923   -2.5892    6.1916 C.3       1 <0>         0.0746
     13 C8          1.6304   -2.9962    5.9969 C.3       1 <0>         0.0327
     14 O4          1.4184   -3.3740    4.6352 O.3       1 <0>        -0.3493
     15 C9          0.0443   -3.3888    4.2432 C.3       1 <0>         0.0400
     16 H3         -0.4206   -4.3142    4.5832 H         1 <0>         0.0337
     17 C10        -0.0522   -3.2997    2.7188 C.3       1 <0>         0.0384
     18 H4         -0.6593   -4.1238    2.3444 H         1 <0>         0.0331
     19 O5         -0.6563   -2.0578    2.3516 O.3       1 <0>        -0.3496
     20 C11        -0.4061   -1.6669    1.0000 C.3       1 <0>         0.0370
     21 C12        -0.5487   -0.1489    0.8735 C.3       1 <0>         0.0743
     22 O6          0.7166    0.4218    0.5338 O.3       1 <0>        -0.3688
     23 C13         1.3293   -3.3821    2.1224 C.2       1 <0>         0.4947
     24 O7          1.8017   -4.4663    1.8260 O.co2     1 <0>        -0.7301
     25 O8          1.9746   -2.3645    1.9362 O.co2     1 <0>        -0.6360
     26 C14        -0.6670   -2.2127    4.8612 C.2       1 <0>         0.4962
     27 O9         -0.0686   -1.1666    5.0456 O.co2     1 <0>        -0.6401
     28 O10        -1.8409   -2.3074    5.1767 O.co2     1 <0>        -0.7300
     29 C15         5.1245    3.5673    4.6266 C.2       1 <0>         0.5010
     30 O11         4.9062    4.7613    4.5126 O.co2     1 <0>        -0.6600
     31 O12         6.1875    3.1828    5.0834 O.co2     1 <0>        -0.7218
     32 C16         4.0565    4.0890    2.2456 C.2       1 <0>         0.4985
     33 O13         3.1160    4.7146    1.7867 O.co2     1 <0>        -0.7192
     34 O14         5.1505    4.6179    2.3443 O.co2     1 <0>        -0.6584
     35 H5          0.2071    2.0992    1.6271 H         1 <0>         0.0579
     36 H6          0.4017    2.3549   -0.1237 H         1 <0>         0.0417
     37 H7          2.9076    1.5233    0.4646 H         1 <0>         0.0309
     38 H8          2.4213    3.2326    0.5642 H         1 <0>         0.0803
     39 H9          5.0544    1.4014    6.5294 H         1 <0>         0.0522
     40 H10         3.3126    1.2107    6.2166 H         1 <0>         0.0473
     41 H11         4.8169   -1.0509    5.1480 H         1 <0>         0.0619
     42 H12         5.1474   -0.8307    6.8831 H         1 <0>         0.0392
     43 H13         3.6669   -2.8641    5.3071 H         1 <0>         0.0601
     44 H14         3.4992   -3.1019    7.0632 H         1 <0>         0.0349
     45 H15         1.3980   -3.8388    6.6482 H         1 <0>         0.0197
     46 H16         0.9829   -2.1553    6.2457 H         1 <0>         0.1100
     47 H17         0.6046   -1.9617    0.7177 H         1 <0>         0.1095
     48 H18        -1.1244   -2.1555    0.3417 H         1 <0>         0.0191
     49 H19        -1.2735    0.0842    0.0934 H         1 <0>         0.0289
     50 H20        -0.8907    0.2643    1.8224 H         1 <0>         0.0613
@<TRIPOS>BOND
     1    1   22 1
     2    1    2 1
     3    1   35 1
     4    1   36 1
     5    2    3 1
     6    2   37 1
     7    2   38 1
     8    3    4 1
     9    4    5 1
    10    4    6 1
    11    4   32 1
    12    6    7 1
    13    6    8 1
    14    6   29 1
    15    8    9 1
    16    9   10 1
    17    9   39 1
    18    9   40 1
    19   10   11 1
    20   10   41 1
    21   10   42 1
    22   11   12 1
    23   12   13 1
    24   12   43 1
    25   12   44 1
    26   13   14 1
    27   13   45 1
    28   13   46 1
    29   14   15 1
    30   15   16 1
    31   15   17 1
    32   15   26 1
    33   17   18 1
    34   17   19 1
    35   17   23 1
    36   19   20 1
    37   20   21 1
    38   20   47 1
    39   20   48 1
    40   21   22 1
    41   21   49 1
    42   21   50 1
    43   23   24 2
    44   23   25 1
    45   26   27 2
    46   26   28 1
    47   29   30 2
    48   29   31 1
    49   32   33 2
    50   32   34 1
@<TRIPOS>MOLECULE
ZINC13431134
   46    49     0     0     0
SMALL
USER_CHARGES
7-[[2-(1,3-dimethyl-2,6-dioxo-purin-7-yl)acetyl]amino]-2,3-dihydro-1,4-benzodioxine-6-carboxylic acid
@<TRIPOS>ATOM
      1 C1         -4.1483    2.3783    2.2196 C.3       1 <0>         0.0923
      2 N1         -2.7007    2.1679    2.2982 N.am      1 <0>        -0.5109
      3 C2         -2.0267    2.4306    3.4799 C.2       1 <0>         0.3108
      4 C3         -0.6538    2.2235    3.5290 C.2       1 <0>        -0.1324
      5 C4          0.0123    1.7522    2.3772 C.2       1 <0>         0.5879
      6 O1          1.2154    1.5632    2.3953 O.2       1 <0>        -0.4960
      7 N2         -0.6993    1.5139    1.2558 N.am      1 <0>        -0.5523
      8 C5         -2.0265    1.7239    1.2206 C.2       1 <0>         0.7096
      9 O2         -2.6344    1.5028    0.1909 O.2       1 <0>        -0.5416
     10 C6         -0.0142    1.0247    0.0569 C.3       1 <0>         0.0846
     11 N3         -0.2576    2.5617    4.8075 N.pl3     1 <0>        -0.3919
     12 C7         -1.3631    2.9502    5.4724 C.2       1 <0>         0.2745
     13 N4         -2.4039    2.8704    4.6831 N.2       1 <0>        -0.4970
     14 C8          1.1060    2.5075    5.3403 C.3       1 <0>         0.0855
     15 C9          1.8318    3.7819    4.9935 C.2       1 <0>         0.4994
     16 O3          1.2657    4.6499    4.3633 O.2       1 <0>        -0.5210
     17 N5          3.1099    3.9571    5.3836 N.am      1 <0>        -0.6300
     18 C10         3.8113    5.0935    4.9835 C.ar      1 <0>         0.1781
     19 C11         3.1554    6.3077    4.8599 C.ar      1 <0>        -0.1327
     20 C12         3.8512    7.4402    4.4629 C.ar      1 <0>         0.0652
     21 C13         5.2164    7.3630    4.1866 C.ar      1 <0>         0.0185
     22 C14         5.8800    6.1582    4.3048 C.ar      1 <0>        -0.0510
     23 C15         5.1860    5.0129    4.7100 C.ar      1 <0>        -0.1321
     24 C16         5.8921    3.7290    4.8427 C.2       1 <0>         0.5002
     25 O4          5.2694    2.7162    5.0958 O.co2     1 <0>        -0.6310
     26 O5          5.9115    8.4693    3.8002 O.3       1 <0>        -0.3070
     27 C17         5.1414    9.5810    3.3304 C.3       1 <0>         0.0205
     28 C18         3.9811    9.8087    4.3087 C.3       1 <0>         0.0217
     29 O6          3.1850    8.6197    4.3450 O.3       1 <0>        -0.3073
     30 H1         -4.3500    3.3992    1.8950 H         1 <0>         0.0704
     31 H2         -4.5790    1.6778    1.5042 H         1 <0>         0.0906
     32 H3         -4.5931    2.2146    3.2012 H         1 <0>         0.0906
     33 H4         -0.0013   -0.0652    0.0650 H         1 <0>         0.0753
     34 H5          1.0091    1.4000    0.0445 H         1 <0>         0.0953
     35 H6         -0.5406    1.3752   -0.8309 H         1 <0>         0.0941
     36 H7         -1.3868    3.2782    6.5011 H         1 <0>         0.2294
     37 H8          1.0685    2.3941    6.4237 H         1 <0>         0.1374
     38 H9          1.6331    1.6590    4.9042 H         1 <0>         0.1413
     39 H10         3.5417    3.2924    5.9428 H         1 <0>         0.4276
     40 H11         2.0988    6.3727    5.0737 H         1 <0>         0.1464
     41 H12         6.9367    6.1008    4.0889 H         1 <0>         0.1484
     42 H13         4.7478    9.3623    2.3377 H         1 <0>         0.0727
     43 H14         5.7684   10.4717    3.2900 H         1 <0>         0.1167
     44 H15         3.3735   10.6476    3.9692 H         1 <0>         0.1162
     45 H16         4.3741   10.0185    5.3035 H         1 <0>         0.0744
     46 O7          7.2296    3.6757    4.6837 O.co2     1 <0>        -0.7415
@<TRIPOS>BOND
     1    1    2 1
     2    1   30 1
     3    1   31 1
     4    1   32 1
     5    2    8 am
     6    2    3 1
     7    3   13 1
     8    3    4 2
     9    4    5 1
    10    4   11 1
    11    5    6 2
    12    5    7 am
    13    7    8 am
    14    7   10 1
    15    8    9 2
    16   10   33 1
    17   10   34 1
    18   10   35 1
    19   11   12 1
    20   11   14 1
    21   12   13 2
    22   12   36 1
    23   14   15 1
    24   14   37 1
    25   14   38 1
    26   15   16 2
    27   15   17 am
    28   17   18 1
    29   17   39 1
    30   18   23 ar
    31   18   19 ar
    32   19   20 ar
    33   19   40 1
    34   20   29 1
    35   20   21 ar
    36   21   22 ar
    37   21   26 1
    38   22   23 ar
    39   22   41 1
    40   23   24 1
    41   24   25 2
    42   24   46 1
    43   26   27 1
    44   27   28 1
    45   27   42 1
    46   27   43 1
    47   28   29 1
    48   28   44 1
    49   28   45 1
@<TRIPOS>MOLECULE
ZINC38507444
   42    45     0     0     0
SMALL
USER_CHARGES

@<TRIPOS>ATOM
      1 C1         -0.0184    1.5028    0.0103 C.3       1 <0>        -0.0662
      2 C2          0.0021   -0.0041    0.0020 C.2       1 <0>         0.0817
      3 C3          0.0079   -0.8146   -1.1374 C.2       1 <0>        -0.2781
      4 C4          0.0274   -2.1120   -0.7272 C.2       1 <0>         0.3427
      5 N1          0.0335   -2.1088    0.6356 N.pl3     1 <0>        -0.3150
      6 N2          0.0230   -0.7738    1.0596 N.2       1 <0>        -0.2493
      7 C5          0.0526   -3.2324    1.4597 C.ar      1 <0>         0.6273
      8 N3          0.0718   -4.4354    0.8992 N.ar      1 <0>        -0.6681
      9 C6          0.0904   -5.5359    1.6375 C.ar      1 <0>         0.5267
     10 O1          0.1104   -6.7586    1.0568 O.3       1 <0>        -0.6595
     11 C7          0.0894   -5.4048    3.0383 C.ar      1 <0>        -0.3694
     12 C8          0.1051   -6.3132    4.1195 C.2       1 <0>         0.1290
     13 N4          0.0948   -5.6332    5.2301 N.2       1 <0>        -0.3005
     14 N5          0.0721   -4.2623    4.9444 N.pl3     1 <0>        -0.3931
     15 C9          0.0686   -4.1082    3.5898 C.ar      1 <0>         0.3755
     16 N6          0.0562   -3.0603    2.7687 N.ar      1 <0>        -0.6043
     17 C10         0.0556   -3.1799    5.9315 C.3       1 <0>         0.1199
     18 N7          0.0389   -3.2363   -1.5490 N.am      1 <0>        -0.6287
     19 C11         0.0314   -3.0917   -2.8890 C.2       1 <0>         0.6179
     20 O2          0.0145   -1.9787   -3.3808 O.2       1 <0>        -0.5037
     21 C12         0.0435   -4.2756   -3.7543 C.2       1 <0>        -0.2926
     22 C13         0.0446   -4.3614   -5.1293 C.2       1 <0>         0.1536
     23 N8          0.0576   -5.5672   -5.6409 N.2       1 <0>        -0.5298
     24 C14         0.0691   -6.6378   -4.8798 C.2       1 <0>         0.0557
     25 S1          0.0690   -6.0074   -3.3192 S.3       1 <0>         0.2048
     26 C15         0.0847   -8.0842   -5.3027 C.3       1 <0>        -0.0687
     27 C16         0.0309   -3.1314   -6.0000 C.3       1 <0>        -0.0873
     28 H1          1.0042    1.8801    0.0026 H         1 <0>         0.0767
     29 H2         -0.5455    1.8639   -0.8728 H         1 <0>         0.0784
     30 H3         -0.5286    1.8543    0.9071 H         1 <0>         0.0723
     31 H4         -0.0014   -0.4717   -2.1615 H         1 <0>         0.1797
     32 H5          0.1227   -7.3901    4.0389 H         1 <0>         0.1860
     33 H6          1.0790   -2.8944    6.1749 H         1 <0>         0.0617
     34 H7         -0.4731   -2.3204    5.5195 H         1 <0>         0.0839
     35 H8         -0.4513   -3.5195    6.8347 H         1 <0>         0.0790
     36 H9          0.0524   -4.1235   -1.1570 H         1 <0>         0.4359
     37 H10         1.1161   -8.4218   -5.4046 H         1 <0>         0.0932
     38 H11        -0.4227   -8.6882   -4.5505 H         1 <0>         0.0906
     39 H12        -0.4279   -8.1887   -6.2590 H         1 <0>         0.0933
     40 H13         1.0552   -2.8234   -6.2098 H         1 <0>         0.0799
     41 H14        -0.4804   -3.3548   -6.9363 H         1 <0>         0.0730
     42 H15        -0.4920   -2.3265   -5.4835 H         1 <0>         0.0961
@<TRIPOS>BOND
     1    1    2 1
     2    1   28 1
     3    1   29 1
     4    1   30 1
     5    2    6 2
     6    2    3 1
     7    3    4 2
     8    3   31 1
     9    4    5 1
    10    4   18 1
    11    5    6 1
    12    5    7 1
    13    7   16 ar
    14    7    8 ar
    15    8    9 ar
    16    9   10 1
    17    9   11 ar
    18   11   15 ar
    19   11   12 1
    20   12   13 2
    21   12   32 1
    22   13   14 1
    23   14   15 1
    24   14   17 1
    25   15   16 ar
    26   17   33 1
    27   17   34 1
    28   17   35 1
    29   18   19 am
    30   18   36 1
    31   19   20 2
    32   19   21 1
    33   21   25 1
    34   21   22 2
    35   22   23 1
    36   22   27 1
    37   23   24 2
    38   24   25 1
    39   24   26 1
    40   26   37 1
    41   26   38 1
    42   26   39 1
    43   27   40 1
    44   27   41 1
    45   27   42 1
@<TRIPOS>MOLECULE
ZINC15781434
   32    33     0     0     0
SMALL
USER_CHARGES

@<TRIPOS>ATOM
      1 C1         -0.0184    1.5028    0.0103 C.3       1 <0>        -0.1631
      2 C2          0.0021   -0.0041    0.0020 C.2       1 <0>         0.5024
      3 O1          0.0203   -0.6161    1.0490 O.2       1 <0>        -0.4659
      4 N1          0.0001   -0.6716   -1.1688 N.am      1 <0>        -0.6142
      5 C3          0.0189   -2.0622   -1.1765 C.2       1 <0>         0.2364
      6 N2          0.0342   -2.8992   -0.1578 N.2       1 <0>        -0.3119
      7 N3          0.0506   -4.1518   -0.3231 N.2       1 <0>        -0.1145
      8 C4          0.0525   -4.6369   -1.5486 C.2       1 <0>        -0.4944
      9 S1          0.0209   -3.1183   -2.4906 S.3       1 <0>         0.1815
     10 S2          0.0731   -6.3097   -2.1017 S.o2      1 <0>         2.6833
     11 O2         -1.2748   -6.7592   -2.0864 O.2       1 <0>        -0.9692
     12 O3          0.8728   -6.3393   -3.2760 O.2       1 <0>        -0.9741
     13 N4          0.8799   -7.1939   -0.9573 N.2       1 <0>        -1.0346
     14 C5          1.0407   -8.4737   -1.1189 C.2       1 <0>         0.5174
     15 O4          0.5489   -9.0831   -2.2216 O.3       1 <0>        -0.6964
     16 C6          1.7617   -9.2639   -0.0962 C.ar      1 <0>        -0.0001
     17 C7          2.2650   -8.6393    1.0450 C.ar      1 <0>        -0.0667
     18 C8          2.9364   -9.3815    1.9949 C.ar      1 <0>        -0.0722
     19 C9          3.1108  -10.7423    1.8173 C.ar      1 <0>        -0.0501
     20 C10         2.6139  -11.3676    0.6876 C.ar      1 <0>        -0.0706
     21 C11         1.9358  -10.6374   -0.2667 C.ar      1 <0>        -0.0753
     22 N5          3.8324  -11.5325    2.8398 N.pl3     1 <0>         0.0395
     23 O5          4.2680  -10.9886    3.8278 O.2       1 <0>        -0.1692
     24 O6          3.9862  -12.7219    2.6871 O.3       1 <0>        -0.1704
     25 H1          1.0042    1.8801    0.0026 H         1 <0>         0.1033
     26 H2         -0.5455    1.8639   -0.8728 H         1 <0>         0.0867
     27 H3         -0.5286    1.8543    0.9071 H         1 <0>         0.1042
     28 H4         -0.0145   -0.1822   -2.0061 H         1 <0>         0.4296
     29 H5          2.1298   -7.5769    1.1846 H         1 <0>         0.1663
     30 H6          3.3269   -8.8990    2.8787 H         1 <0>         0.1519
     31 H7          2.7536  -12.4303    0.5545 H         1 <0>         0.1517
     32 H8          1.5444  -11.1275   -1.1460 H         1 <0>         0.1586
@<TRIPOS>BOND
     1    1    2 1
     2    1   25 1
     3    1   26 1
     4    1   27 1
     5    2    3 2
     6    2    4 am
     7    4    5 1
     8    4   28 1
     9    5    9 1
    10    5    6 2
    11    6    7 1
    12    7    8 2
    13    8    9 1
    14    8   10 1
    15   10   11 2
    16   10   12 2
    17   10   13 1
    18   13   14 2
    19   14   15 1
    20   14   16 1
    21   16   21 ar
    22   16   17 ar
    23   17   18 ar
    24   17   29 1
    25   18   19 ar
    26   18   30 1
    27   19   20 ar
    28   19   22 1
    29   20   21 ar
    30   20   31 1
    31   21   32 1
    32   22   23 2
    33   22   24 1
@<TRIPOS>MOLECULE
ZINC63952250
   41    43     0     0     0
SMALL
USER_CHARGES

@<TRIPOS>ATOM
      1 C1         -0.0184    1.5028    0.0103 C.3       1 <0>        -0.1263
      2 C2          0.0021   -0.0041    0.0020 C.2       1 <0>         0.2551
      3 C3         -1.0888   -0.7392    0.0033 C.2       1 <0>        -0.8595
      4 C4         -0.6548   -2.1950   -0.0188 C.3       1 <0>        -0.0611
      5 C5          0.8335   -2.0720   -0.4282 C.3       1 <0>         0.0642
      6 H1          1.4461   -2.7991    0.1048 H         1 <0>         0.1465
      7 O1          1.1436   -0.7290   -0.0133 O.3       1 <0>        -0.2686
      8 C6          0.9971   -2.2224   -1.9187 C.2       1 <0>         0.4900
      9 O2          1.3943   -1.2884   -2.5825 O.2       1 <0>        -0.4712
     10 N1          0.7020   -3.3949   -2.5141 N.am      1 <0>        -0.6102
     11 C7          0.8527   -3.5335   -3.8870 C.2       1 <0>         0.3517
     12 N2          1.2886   -2.5817   -4.7383 N.2       1 <0>        -0.3647
     13 N3          1.2807   -3.1618   -6.0171 N.2       1 <0>        -0.3434
     14 C8          0.8557   -4.3890   -5.8763 C.2       1 <0>         0.0533
     15 N4          0.6013   -4.6174   -4.5878 N.2       1 <0>        -0.5962
     16 C9          0.6852   -5.3883   -6.9914 C.3       1 <0>         0.5742
     17 F1          1.3603   -4.9360   -8.1302 F         1 <0>        -0.1743
     18 F2          1.2123   -6.6225   -6.5962 F         1 <0>        -0.1799
     19 F3         -0.6753   -5.5341   -7.2829 F         1 <0>        -0.1827
     20 S1         -2.7475   -0.1451    0.0274 S.o2      1 <0>         2.7352
     21 O3         -2.6780    1.2611   -0.1655 O.2       1 <0>        -0.9577
     22 O4         -3.4960   -0.9956   -0.8302 O.2       1 <0>        -0.9502
     23 N5         -3.3312   -0.3845    1.5585 N.pl3     1 <0>        -1.0133
     24 C10        -4.0199   -1.5933    2.0337 C.3       1 <0>         0.1174
     25 C11        -4.4017   -1.3530    3.5095 C.3       1 <0>        -0.1287
     26 C12        -4.4089    0.1947    3.6189 C.3       1 <0>        -0.1295
     27 C13        -3.2406    0.5768    2.6726 C.3       1 <0>         0.1136
     28 H2          1.0042    1.8801    0.0026 H         1 <0>         0.0884
     29 H3         -0.5455    1.8639   -0.8728 H         1 <0>         0.1159
     30 H4         -0.5286    1.8543    0.9071 H         1 <0>         0.1017
     31 H5         -0.7521   -2.6464    0.9685 H         1 <0>         0.0957
     32 H6         -1.2187   -2.7592   -0.7616 H         1 <0>         0.0995
     33 H7         -4.9188   -1.7648    1.4415 H         1 <0>         0.0733
     34 H8         -3.3542   -2.4531    1.9583 H         1 <0>         0.0667
     35 H9         -5.3903   -1.7593    3.7232 H         1 <0>         0.0810
     36 H10        -3.6544   -1.7832    4.1762 H         1 <0>         0.0758
     37 H11        -5.3538    0.6070    3.2648 H         1 <0>         0.0771
     38 H12        -4.2030    0.5152    4.6402 H         1 <0>         0.0821
     39 H13        -2.2845    0.4737    3.1858 H         1 <0>         0.0668
     40 H14        -3.3674    1.5954    2.3060 H         1 <0>         0.0841
     41 H15         0.3843   -4.1420   -1.9832 H         1 <0>         0.4085
@<TRIPOS>BOND
     1    1    2 1
     2    1   28 1
     3    1   29 1
     4    1   30 1
     5    2    7 1
     6    2    3 2
     7    3    4 1
     8    3   20 1
     9    4    5 1
    10    4   31 1
    11    4   32 1
    12    5    6 1
    13    5    7 1
    14    5    8 1
    15    8    9 2
    16    8   10 am
    17   10   11 1
    18   10   41 1
    19   11   15 2
    20   11   12 1
    21   12   13 1
    22   13   14 2
    23   14   15 1
    24   14   16 1
    25   16   17 1
    26   16   18 1
    27   16   19 1
    28   20   21 2
    29   20   22 2
    30   20   23 1
    31   23   27 1
    32   23   24 1
    33   24   25 1
    34   24   33 1
    35   24   34 1
    36   25   26 1
    37   25   35 1
    38   25   36 1
    39   26   27 1
    40   26   37 1
    41   26   38 1
    42   27   39 1
    43   27   40 1
@<TRIPOS>MOLECULE
ZINC67351063
   39    40     0     0     0
SMALL
USER_CHARGES

@<TRIPOS>ATOM
      1 C1          0.0299    1.6333    0.0184 C.3       1 <0>        -0.2108
      2 C2          0.0314    0.1037   -0.0126 C.3       1 <0>         0.2938
      3 O1          0.6917   -0.3470   -1.2010 O.3       1 <0>        -0.3533
      4 C3          2.0185   -0.0491   -1.2822 C.2       1 <0>         0.5687
      5 O2          2.5259    0.4065   -2.2886 O.2       1 <0>        -0.4107
      6 C4          2.8003   -0.3233   -0.0447 C.2       1 <0>        -0.1776
      7 N1          4.0547   -0.7274   -0.0635 N.2       1 <0>        -0.0524
      8 N2          4.6779   -0.9481    1.0441 N.pl3     1 <0>        -0.4542
      9 C5          6.0009   -1.3743    1.0243 C.ar      1 <0>         0.2298
     10 C6          6.6218   -1.6680   -0.1832 C.ar      1 <0>        -0.1645
     11 C7          7.9356   -2.0910   -0.2003 C.ar      1 <0>         0.0368
     12 C8          8.6447   -2.2257    0.9825 C.ar      1 <0>        -0.6815
     13 C9          8.0457   -1.9384    2.1902 C.ar      1 <0>         0.0590
     14 C10         6.7184   -1.5046    2.2240 C.ar      1 <0>        -0.1857
     15 C11         6.0731   -1.1908    3.5120 C.2       1 <0>         0.5209
     16 O3          4.8900   -0.9162    3.5478 O.2       1 <0>        -0.5150
     17 O4          6.7954   -1.2085    4.6494 O.3       1 <0>        -0.3340
     18 C12         6.1057   -0.8944    5.8609 C.3       1 <0>         0.0331
     19 S1         10.3209   -2.7674    0.9426 S.o2      1 <0>         2.6935
     20 O5         10.5641   -3.4805    2.1869 O.2       1 <0>        -1.0555
     21 O6         10.4568   -3.6355   -0.2167 O.2       1 <0>        -1.0556
     22 O7         11.1474   -1.5757    0.8288 O.3       1 <0>        -1.0542
     23 C13         2.0397   -0.0997    1.2160 C.2       1 <0>         0.5125
     24 O8          2.5643    0.3146    2.2314 O.2       1 <0>        -0.4184
     25 O9          0.7116   -0.3946    1.1452 O.3       1 <0>        -0.3591
     26 C14        -1.4114   -0.4055   -0.0120 C.3       1 <0>        -0.1334
     27 H1          1.0572    1.9976    0.0221 H         1 <0>         0.0661
     28 H2         -0.4875    2.0141   -0.8621 H         1 <0>         0.1008
     29 H3         -0.4810    1.9780    0.9175 H         1 <0>         0.0987
     30 H4          4.2234   -0.8167    1.8909 H         1 <0>         0.4238
     31 H5          6.0759   -1.5656   -1.1094 H         1 <0>         0.1528
     32 H6          8.4138   -2.3189   -1.1415 H         1 <0>         0.1543
     33 H7          8.6030   -2.0454    3.1091 H         1 <0>         0.1606
     34 H8          5.2984   -1.6103    6.0154 H         1 <0>         0.0626
     35 H9          6.8013   -0.9448    6.6985 H         1 <0>         0.1074
     36 H10         5.6912    0.1114    5.7927 H         1 <0>         0.0627
     37 H11        -1.9317   -0.0240   -0.8906 H         1 <0>         0.0973
     38 H12        -1.4121   -1.4953   -0.0341 H         1 <0>         0.0852
     39 H13        -1.9183   -0.0601    0.8890 H         1 <0>         0.0957
@<TRIPOS>BOND
     1    1    2 1
     2    1   27 1
     3    1   28 1
     4    1   29 1
     5    2   25 1
     6    2    3 1
     7    2   26 1
     8    3    4 1
     9    4    5 2
    10    4    6 1
    11    6    7 2
    12    6   23 1
    13    7    8 1
    14    8    9 1
    15    8   30 1
    16    9   14 ar
    17    9   10 ar
    18   10   11 ar
    19   10   31 1
    20   11   12 ar
    21   11   32 1
    22   12   13 ar
    23   12   19 1
    24   13   14 ar
    25   13   33 1
    26   14   15 1
    27   15   16 2
    28   15   17 1
    29   17   18 1
    30   18   34 1
    31   18   35 1
    32   18   36 1
    33   19   20 2
    34   19   21 2
    35   19   22 1
    36   23   24 2
    37   23   25 1
    38   26   37 1
    39   26   38 1
    40   26   39 1
@<TRIPOS>MOLECULE
ZINC13252007
   46    48     0     0     0
SMALL
USER_CHARGES
(1R,6R)-6-[[4-chloro-3-[(3-chlorophenyl)sulfamoyl]phenyl]carbamoyl]cyclohex-3-ene-1-carboxylic acid
@<TRIPOS>ATOM
      1 C1          4.4276   -0.0698    2.9447 C.ar      1 <0>        -0.0847
      2 C2          4.0590    0.1814    1.6373 C.ar      1 <0>        -0.2145
      3 C3          2.8508    0.8107    1.3662 C.ar      1 <0>         0.2483
      4 C4          2.0163    1.1858    2.4115 C.ar      1 <0>        -0.1513
      5 C5          2.3933    0.9368    3.7175 C.ar      1 <0>        -0.0079
      6 C6          3.5956    0.3043    3.9834 C.ar      1 <0>        -0.1901
      7 Cl1         1.3553    1.4118    5.0254 Cl        1 <0>        -0.1114
      8 N1          2.4754    1.0655    0.0452 N.2       1 <0>        -1.0601
      9 S1          3.5659    1.7235   -1.0132 S.o2      1 <0>         2.5951
     10 O1          4.7290    0.9091   -0.9566 O.2       1 <0>        -1.0407
     11 O2          2.8624    1.9638   -2.2242 O.2       1 <0>        -0.9833
     12 C7          4.0242    3.3009   -0.3755 C.ar      1 <0>        -0.6348
     13 C8          5.3283    3.5349    0.0151 C.ar      1 <0>        -0.0542
     14 C9          5.6898    4.7796    0.5130 C.ar      1 <0>         0.1478
     15 C10         4.7364    5.7831    0.6264 C.ar      1 <0>        -0.0795
     16 C11         3.4329    5.5423    0.2394 C.ar      1 <0>        -0.1191
     17 C12         3.0762    4.3022   -0.2611 C.ar      1 <0>         0.0333
     18 Cl2         1.4366    4.0027   -0.7467 Cl        1 <0>        -0.0513
     19 N2          7.0118    5.0211    0.9046 N.am      1 <0>        -0.6947
     20 C13         7.5592    6.2379    0.7149 C.2       1 <0>         0.5285
     21 O3          6.8817    7.1473    0.2845 O.2       1 <0>        -0.4861
     22 C14         9.0131    6.4687    1.0375 C.3       1 <0>        -0.0794
     23 H1          9.6117    5.7807    0.4224 H         1 <0>         0.0956
     24 C15         9.2578    6.2064    2.5251 C.3       1 <0>        -0.0827
     25 C16        10.6263    6.6825    2.9157 C.2       1 <0>        -0.1654
     26 C17        11.3371    7.5033    2.2110 C.2       1 <0>        -0.1417
     27 C18        10.8963    8.0855    0.8999 C.3       1 <0>        -0.0732
     28 C19         9.3834    7.9261    0.7346 C.3       1 <0>        -0.1118
     29 H2          8.8489    8.6103    1.4100 H         1 <0>         0.0744
     30 C20         8.9899    8.2652   -0.6801 C.2       1 <0>         0.4764
     31 O4          8.4665    7.4296   -1.3783 O.co2     1 <0>        -0.6224
     32 O5          9.2210    9.4956   -1.1644 O.co2     1 <0>        -0.7838
     33 H3          5.3671   -0.5588    3.1556 H         1 <0>         0.1115
     34 H4          4.7096   -0.1116    0.8266 H         1 <0>         0.1430
     35 H5          1.0762    1.6752    2.2040 H         1 <0>         0.1218
     36 H6          3.8864    0.1070    5.0046 H         1 <0>         0.1102
     37 H7          6.0669    2.7516   -0.0702 H         1 <0>         0.1417
     38 H8          5.0141    6.7508    1.0172 H         1 <0>         0.1448
     39 H9          2.6910    6.3222    0.3277 H         1 <0>         0.1316
     40 H10         7.6039    4.2177    1.3672 H         1 <0>         0.4243
     41 H11         8.5054    6.7440    3.1208 H         1 <0>         0.0741
     42 H12         9.1809    5.1274    2.7247 H         1 <0>         0.0720
     43 H13        11.0192    6.2901    3.8652 H         1 <0>         0.1015
     44 H14        12.3308    7.8145    2.5655 H         1 <0>         0.0999
     45 H15        11.1517    9.1550    0.8693 H         1 <0>         0.0785
     46 H16        11.4060    7.5631    0.0769 H         1 <0>         0.0700
@<TRIPOS>BOND
     1    1    6 ar
     2    1    2 ar
     3    1   33 1
     4    2    3 ar
     5    2   34 1
     6    3    4 ar
     7    3    8 1
     8    4    5 ar
     9    4   35 1
    10    5    6 ar
    11    5    7 1
    12    6   36 1
    13    8    9 1
    14    9   10 2
    15    9   11 2
    16    9   12 1
    17   12   17 ar
    18   12   13 ar
    19   13   14 ar
    20   13   37 1
    21   14   15 ar
    22   14   19 1
    23   15   16 ar
    24   15   38 1
    25   16   17 ar
    26   16   39 1
    27   17   18 1
    28   19   20 am
    29   19   40 1
    30   20   21 2
    31   20   22 1
    32   22   23 1
    33   22   28 1
    34   22   24 1
    35   24   25 1
    36   24   41 1
    37   24   42 1
    38   25   26 2
    39   25   43 1
    40   26   27 1
    41   26   44 1
    42   27   28 1
    43   27   45 1
    44   27   46 1
    45   28   29 1
    46   28   30 1
    47   30   31 2
    48   30   32 1
@<TRIPOS>MOLECULE
ZINC13193650
   48    52     0     0     0
SMALL
USER_CHARGES

@<TRIPOS>ATOM
      1 C1         -0.5664    1.3680   -0.1824 C.ar      1 <0>        -0.1170
      2 C2          0.4946    2.2015    0.1068 C.ar      1 <0>        -0.1177
      3 C3          1.7576    1.6614    0.3624 C.ar      1 <0>        -0.1115
      4 C4          1.9402    0.2776    0.3237 C.ar      1 <0>        -0.1196
      5 C5          0.8673   -0.5501    0.0320 C.ar      1 <0>         0.1640
      6 C6         -0.3853   -0.0018   -0.2208 C.ar      1 <0>        -0.1640
      7 N1          1.0445   -1.9362   -0.0081 N.am      1 <0>        -0.5482
      8 C7          0.0081   -2.9314   -0.3072 C.3       1 <0>         0.2658
      9 H1         -0.7931   -2.8715    0.4295 H         1 <0>         0.0751
     10 C8          0.6854   -4.2798   -0.2298 C.2       1 <0>        -0.5084
     11 C9          1.9809   -4.0483    0.0842 C.2       1 <0>         0.2783
     12 C10         2.1967   -2.5941    0.2150 C.2       1 <0>         0.5017
     13 O1          3.2584   -2.0684    0.4864 O.2       1 <0>        -0.4949
     14 O2          2.9300   -4.9997    0.2481 O.3       1 <0>        -0.6484
     15 C11         0.0589   -5.5882   -0.4520 C.2       1 <0>         0.5461
     16 O3          0.3987   -6.2732   -1.4008 O.2       1 <0>        -0.4649
     17 C12        -0.9752   -6.0709    0.4671 C.2       1 <0>        -0.2197
     18 C13        -1.6422   -7.2897    0.4728 C.2       1 <0>        -0.1149
     19 C14        -2.5702   -7.4561    1.4709 C.2       1 <0>        -0.1796
     20 C15        -2.7702   -6.4505    2.3606 C.2       1 <0>        -0.2675
     21 S1         -1.6999   -5.2505    1.8742 S.3       1 <0>         0.2322
     22 C16        -0.5433   -2.7055   -1.6914 C.ar      1 <0>        -0.0604
     23 C17         0.3160   -2.4443   -2.7424 C.ar      1 <0>        -0.0755
     24 C18        -0.1859   -2.2353   -4.0129 C.ar      1 <0>        -0.1084
     25 C19        -1.5537   -2.2875   -4.2369 C.ar      1 <0>         0.0386
     26 C20        -2.4174   -2.5526   -3.1810 C.ar      1 <0>         0.0459
     27 C21        -1.9067   -2.7655   -1.9091 C.ar      1 <0>        -0.1079
     28 O4         -3.7623   -2.6160   -3.3803 O.3       1 <0>        -0.3089
     29 C22        -4.2617   -2.0363   -4.5904 C.3       1 <0>         0.0220
     30 C23        -3.3742   -2.5067   -5.7507 C.3       1 <0>         0.0216
     31 O5         -2.0335   -2.0755   -5.4929 O.3       1 <0>        -0.3100
     32 C24         2.8943    2.5500    0.6716 C.2       1 <0>         0.5223
     33 O6          2.7319    3.7616    0.7045 O.co2     1 <0>        -0.6979
     34 O7          3.9987    2.0748    0.8949 O.co2     1 <0>        -0.6806
     35 H2         -1.5429    1.7872   -0.3753 H         1 <0>         0.1111
     36 H3          0.3488    3.2713    0.1354 H         1 <0>         0.1203
     37 H4          2.9140   -0.1463    0.5199 H         1 <0>         0.1576
     38 H5         -1.2200   -0.6486   -0.4475 H         1 <0>         0.1152
     39 H6         -1.4438   -8.0568   -0.2610 H         1 <0>         0.1404
     40 H7         -3.1335   -8.3744    1.5470 H         1 <0>         0.1241
     41 H8         -3.4573   -6.4286    3.1935 H         1 <0>         0.1783
     42 H9          1.3814   -2.4031   -2.5702 H         1 <0>         0.1288
     43 H10         0.4875   -2.0307   -4.8321 H         1 <0>         0.1309
     44 H11        -2.5756   -2.9741   -1.0872 H         1 <0>         0.1318
     45 H12        -5.2884   -2.3618   -4.7576 H         1 <0>         0.1141
     46 H13        -4.2273   -0.9492   -4.5187 H         1 <0>         0.0737
     47 H14        -3.4039   -3.5942   -5.8187 H         1 <0>         0.0723
     48 H15        -3.7278   -2.0697   -6.6846 H         1 <0>         0.1139
@<TRIPOS>BOND
     1    1    6 ar
     2    1    2 ar
     3    1   35 1
     4    2    3 ar
     5    2   36 1
     6    3    4 ar
     7    3   32 1
     8    4    5 ar
     9    4   37 1
    10    5    6 ar
    11    5    7 1
    12    6   38 1
    13    7   12 am
    14    7    8 1
    15    8    9 1
    16    8   10 1
    17    8   22 1
    18   10   11 2
    19   10   15 1
    20   11   12 1
    21   11   14 1
    22   12   13 2
    23   15   16 2
    24   15   17 1
    25   17   21 1
    26   17   18 2
    27   18   19 1
    28   18   39 1
    29   19   20 2
    30   19   40 1
    31   20   21 1
    32   20   41 1
    33   22   27 ar
    34   22   23 ar
    35   23   24 ar
    36   23   42 1
    37   24   25 ar
    38   24   43 1
    39   25   31 1
    40   25   26 ar
    41   26   27 ar
    42   26   28 1
    43   27   44 1
    44   28   29 1
    45   29   30 1
    46   29   45 1
    47   29   46 1
    48   30   31 1
    49   30   47 1
    50   30   48 1
    51   32   33 2
    52   32   34 1
@<TRIPOS>MOLECULE
ZINC13213987
   45    48     0     0     0
SMALL
USER_CHARGES

@<TRIPOS>ATOM
      1 C1          0.0042    1.3809    0.0176 C.ar      1 <0>        -0.1160
      2 C2          1.1890    2.0882    0.0015 C.ar      1 <0>        -0.1169
      3 C3          2.4087    1.4072   -0.0231 C.ar      1 <0>        -0.1104
      4 C4          2.4228    0.0110   -0.0312 C.ar      1 <0>        -0.1195
      5 C5          1.2266   -0.6892   -0.0149 C.ar      1 <0>         0.1621
      6 C6          0.0184   -0.0012    0.0095 C.ar      1 <0>        -0.1661
      7 N1          1.2349   -2.0871   -0.0230 N.am      1 <0>        -0.5490
      8 C7          0.0536   -2.9581   -0.0138 C.3       1 <0>         0.2588
      9 H1         -0.5549   -2.7740   -0.8992 H         1 <0>         0.0810
     10 C8          0.5765   -4.3756   -0.0282 C.2       1 <0>        -0.5066
     11 C9          1.9271   -4.2932   -0.0439 C.2       1 <0>         0.2795
     12 C10         2.3270   -2.8725   -0.0465 C.2       1 <0>         0.5020
     13 O1          3.4741   -2.4712   -0.0642 O.2       1 <0>        -0.4932
     14 O2          2.7768   -5.3470   -0.0602 O.3       1 <0>        -0.6465
     15 C11        -0.2254   -5.6044   -0.0256 C.2       1 <0>         0.5450
     16 O3         -0.1805   -6.3592    0.9300 O.2       1 <0>        -0.4549
     17 C12        -1.0806   -5.9240   -1.1725 C.2       1 <0>        -0.0563
     18 C13        -1.9558   -6.9849   -1.2618 C.2       1 <0>        -0.1617
     19 C14        -2.5576   -6.9007   -2.5257 C.2       1 <0>        -0.2287
     20 C15        -2.0379   -5.8162   -3.1444 C.2       1 <0>        -0.0316
     21 O4         -1.1553   -5.2286   -2.3263 O.3       1 <0>        -0.1403
     22 C16        -0.7588   -2.7165    1.2323 C.ar      1 <0>        -0.0323
     23 C17        -0.1293   -2.6133    2.4586 C.ar      1 <0>        -0.0844
     24 C18        -0.8745   -2.3917    3.6016 C.ar      1 <0>        -0.0673
     25 C19        -2.2492   -2.2729    3.5182 C.ar      1 <0>        -0.1977
     26 C20        -2.8786   -2.3751    2.2917 C.ar      1 <0>        -0.0726
     27 C21        -2.1330   -2.5925    1.1482 C.ar      1 <0>        -0.1192
     28 C22        -3.0617   -2.0323    4.7644 C.3       1 <0>         0.5114
     29 F1         -3.1901   -0.6558    4.9788 F         1 <0>        -0.1797
     30 F2         -4.3307   -2.6007    4.6107 F         1 <0>        -0.1824
     31 F3         -2.4184   -2.6169    5.8606 F         1 <0>        -0.1799
     32 C23         3.6773    2.1606   -0.0408 C.2       1 <0>         0.5220
     33 O5          3.6624    3.3834   -0.0340 O.co2     1 <0>        -0.6969
     34 O6          4.7436    1.5623   -0.0623 O.co2     1 <0>        -0.6802
     35 H2         -0.9375    1.9091    0.0412 H         1 <0>         0.1125
     36 H3          1.1734    3.1681    0.0076 H         1 <0>         0.1213
     37 H4          3.3622   -0.5215   -0.0506 H         1 <0>         0.1576
     38 H5         -0.9123   -0.5489    0.0225 H         1 <0>         0.1142
     39 H6         -2.1414   -7.7344   -0.5068 H         1 <0>         0.1522
     40 H7         -3.2977   -7.5757   -2.9295 H         1 <0>         0.1469
     41 H8         -2.2963   -5.4761   -4.1364 H         1 <0>         0.2009
     42 H9          0.9448   -2.7062    2.5238 H         1 <0>         0.1305
     43 H10        -0.3827   -2.3118    4.5598 H         1 <0>         0.1312
     44 H11        -3.9527   -2.2826    2.2266 H         1 <0>         0.1296
     45 H12        -2.6244   -2.6687    0.1895 H         1 <0>         0.1314
@<TRIPOS>BOND
     1    1    6 ar
     2    1    2 ar
     3    1   35 1
     4    2    3 ar
     5    2   36 1
     6    3    4 ar
     7    3   32 1
     8    4    5 ar
     9    4   37 1
    10    5    6 ar
    11    5    7 1
    12    6   38 1
    13    7   12 am
    14    7    8 1
    15    8    9 1
    16    8   10 1
    17    8   22 1
    18   10   11 2
    19   10   15 1
    20   11   12 1
    21   11   14 1
    22   12   13 2
    23   15   16 2
    24   15   17 1
    25   17   21 1
    26   17   18 2
    27   18   19 1
    28   18   39 1
    29   19   20 2
    30   19   40 1
    31   20   21 1
    32   20   41 1
    33   22   27 ar
    34   22   23 ar
    35   23   24 ar
    36   23   42 1
    37   24   25 ar
    38   24   43 1
    39   25   26 ar
    40   25   28 1
    41   26   27 ar
    42   26   44 1
    43   27   45 1
    44   28   29 1
    45   28   30 1
    46   28   31 1
    47   32   33 2
    48   32   34 1
@<TRIPOS>MOLECULE
ZINC02719582
   51    54     0     0     0
SMALL
USER_CHARGES

@<TRIPOS>ATOM
      1 C1         -0.0184    1.5028    0.0103 C.3       1 <0>        -0.0920
      2 C2          0.0021   -0.0041    0.0020 C.2       1 <0>         0.2993
      3 C3         -1.2184   -0.6930    0.0043 C.2       1 <0>        -0.4337
      4 C4         -1.1658   -2.2120   -0.0043 C.3       1 <0>         0.1341
      5 H1         -1.6918   -2.5767    0.8780 H         1 <0>         0.0425
      6 C5          0.2176   -2.8185   -0.0144 C.ar      1 <0>        -0.3571
      7 C6          0.4170   -4.1838   -0.0233 C.ar      1 <0>         0.4601
      8 O1         -0.6363   -5.0371   -0.0234 O.3       1 <0>        -0.7044
      9 N1          1.6676   -4.6461   -0.0324 N.ar      1 <0>        -0.6363
     10 C7          2.6985   -3.8125   -0.0328 C.ar      1 <0>         0.3365
     11 N2          2.5453   -2.4975   -0.0240 N.ar      1 <0>        -0.5848
     12 C8          1.3212   -1.9571   -0.0151 C.ar      1 <0>         0.4105
     13 N3          1.1556   -0.6145   -0.0123 N.2       1 <0>        -0.6135
     14 S1          4.3299   -4.4782   -0.0450 S.3       1 <0>        -0.0571
     15 C9          4.0712   -6.2736   -0.0540 C.3       1 <0>        -0.0606
     16 C10         5.4058   -6.9734   -0.0649 C.ar      1 <0>        -0.0914
     17 C11         6.0147   -7.2824   -1.2667 C.ar      1 <0>        -0.0744
     18 C12         7.2388   -7.9242   -1.2769 C.ar      1 <0>        -0.1334
     19 C13         7.8557   -8.2579   -0.0853 C.ar      1 <0>        -0.0975
     20 C14         7.2491   -7.9496    1.1173 C.ar      1 <0>        -0.1586
     21 C15         6.0252   -7.3019    1.1289 C.ar      1 <0>         0.1146
     22 F1          5.4334   -6.9958    2.3041 F         1 <0>        -0.1302
     23 C16        -1.9009   -2.7027   -1.2249 C.ar      1 <0>         0.0764
     24 C17        -1.4711   -2.3331   -2.4857 C.ar      1 <0>        -0.1152
     25 C18        -2.1454   -2.7832   -3.6053 C.ar      1 <0>        -0.0666
     26 C19        -3.2492   -3.6033   -3.4642 C.ar      1 <0>        -0.0848
     27 C20        -3.6785   -3.9736   -2.2035 C.ar      1 <0>        -0.0640
     28 C21        -3.0016   -3.5270   -1.0840 C.ar      1 <0>        -0.0641
     29 N4         -3.9718   -4.0845   -4.6631 N.pl3     1 <0>         0.0565
     30 O2         -3.5966   -3.7603   -5.7657 O.2       1 <0>        -0.1973
     31 O3         -4.9372   -4.8017   -4.5397 O.3       1 <0>        -0.1948
     32 C22        -2.4065   -0.0267    0.0142 C.2       1 <0>         0.4497
     33 O4         -3.5663   -0.7158    0.0161 O.3       1 <0>        -0.6812
     34 O5         -2.4233    1.3222    0.0221 O.3       1 <0>        -0.3427
     35 C23        -3.7045    1.9550    0.0323 C.3       1 <0>         0.0429
     36 H2          1.0042    1.8801    0.0026 H         1 <0>         0.0555
     37 H3         -0.5455    1.8639   -0.8728 H         1 <0>         0.0708
     38 H4         -0.5286    1.8543    0.9071 H         1 <0>         0.0708
     39 H5          3.5153   -6.5651    0.8371 H         1 <0>         0.1006
     40 H6          3.5063   -6.5548   -0.9428 H         1 <0>         0.1029
     41 H7          5.5336   -7.0226   -2.1980 H         1 <0>         0.1362
     42 H8          7.7137   -8.1656   -2.2164 H         1 <0>         0.1275
     43 H9          8.8118   -8.7600   -0.0945 H         1 <0>         0.1278
     44 H10         7.7310   -8.2106    2.0479 H         1 <0>         0.1325
     45 H11        -0.6087   -1.6924   -2.5959 H         1 <0>         0.1281
     46 H12        -1.8100   -2.4939   -4.5903 H         1 <0>         0.1335
     47 H13        -4.5411   -4.6140   -2.0932 H         1 <0>         0.1340
     48 H14        -3.3348   -3.8193   -0.0991 H         1 <0>         0.1317
     49 H15        -3.5752    3.0373    0.0379 H         1 <0>         0.0745
     50 H16        -4.2624    1.6603   -0.8566 H         1 <0>         0.0429
     51 H17        -4.2533    1.6500    0.9233 H         1 <0>         0.0434
@<TRIPOS>BOND
     1    1    2 1
     2    1   36 1
     3    1   37 1
     4    1   38 1
     5    2   13 2
     6    2    3 1
     7    3    4 1
     8    3   32 2
     9    4    5 1
    10    4    6 1
    11    4   23 1
    12    6   12 ar
    13    6    7 ar
    14    7    8 1
    15    7    9 ar
    16    9   10 ar
    17   10   11 ar
    18   10   14 1
    19   11   12 ar
    20   12   13 1
    21   14   15 1
    22   15   16 1
    23   15   39 1
    24   15   40 1
    25   16   21 ar
    26   16   17 ar
    27   17   18 ar
    28   17   41 1
    29   18   19 ar
    30   18   42 1
    31   19   20 ar
    32   19   43 1
    33   20   21 ar
    34   20   44 1
    35   21   22 1
    36   23   28 ar
    37   23   24 ar
    38   24   25 ar
    39   24   45 1
    40   25   26 ar
    41   25   46 1
    42   26   27 ar
    43   26   29 1
    44   27   28 ar
    45   27   47 1
    46   28   48 1
    47   29   30 2
    48   29   31 1
    49   32   33 1
    50   32   34 1
    51   34   35 1
    52   35   49 1
    53   35   50 1
    54   35   51 1
@<TRIPOS>MOLECULE
ZINC16902174
   38    40     0     0     0
SMALL
USER_CHARGES

@<TRIPOS>ATOM
      1 C1         -0.7944    1.6647    0.0348 C.ar      1 <0>        -0.1858
      2 C2          0.2359    2.5807   -0.0460 C.ar      1 <0>        -0.0408
      3 C3          1.5395    2.1455   -0.2043 C.ar      1 <0>        -0.1530
      4 C4          1.8152    0.7921   -0.2822 C.ar      1 <0>        -0.0364
      5 C5          0.7892   -0.1288   -0.2020 C.ar      1 <0>        -0.1754
      6 C6         -0.5207    0.3051   -0.0425 C.ar      1 <0>         0.2363
      7 N1         -1.5608   -0.6240    0.0394 N.pl3     1 <0>        -0.7204
      8 C7         -1.2704   -2.0576   -0.0424 C.3       1 <0>         0.1213
      9 H1         -0.3105   -2.2806    0.4234 H         1 <0>         0.1329
     10 C8         -2.3975   -2.8782    0.6172 C.3       1 <0>        -0.1570
     11 C9         -2.9339   -3.7213   -0.5190 C.2       1 <0>         0.5202
     12 O1         -3.8414   -4.5204   -0.4327 O.2       1 <0>        -0.4627
     13 N2         -2.2477   -3.4447   -1.6348 N.am      1 <0>        -0.5091
     14 C10        -1.2844   -2.5225   -1.4823 C.2       1 <0>         0.5016
     15 O2         -0.5447   -2.1239   -2.3561 O.2       1 <0>        -0.4473
     16 C11        -2.5121   -4.0687   -2.8629 C.ar      1 <0>         0.0478
     17 C12        -1.5782   -4.9324   -3.4146 C.ar      1 <0>        -0.0633
     18 C13        -1.8374   -5.5559   -4.6382 C.ar      1 <0>        -0.1498
     19 C14        -3.0373   -5.3088   -5.3040 C.ar      1 <0>        -0.0282
     20 C15        -3.9739   -4.4399   -4.7454 C.ar      1 <0>        -0.1500
     21 C16        -3.7089   -3.8246   -3.5188 C.ar      1 <0>        -0.0630
     22 C17        -5.2455   -4.1747   -5.4457 C.2       1 <0>         0.5292
     23 O3         -5.4785   -4.7170   -6.5166 O.co2     1 <0>        -0.6846
     24 O4         -6.0663   -3.4125   -4.9550 O.co2     1 <0>        -0.6993
     25 C18        -0.8423   -6.4742   -5.2249 C.2       1 <0>         0.5293
     26 O5          0.2099   -6.6900   -4.6405 O.co2     1 <0>        -0.6987
     27 O6         -1.0700   -7.0193   -6.2956 O.co2     1 <0>        -0.6849
     28 I1          3.0991    3.5388   -0.3272 I         1 <0>        -0.0649
     29 H2         -1.8114    2.0050    0.1626 H         1 <0>         0.1292
     30 H3          0.0238    3.6380    0.0141 H         1 <0>         0.1258
     31 H4          2.8338    0.4554   -0.4061 H         1 <0>         0.1276
     32 H5          1.0050   -1.1852   -0.2635 H         1 <0>         0.1317
     33 H6         -2.4751   -0.3199    0.1504 H         1 <0>         0.4092
     34 H7         -1.9978   -3.5114    1.4093 H         1 <0>         0.1310
     35 H8         -3.1741   -2.2198    1.0061 H         1 <0>         0.1245
     36 H9         -0.6491   -5.1232   -2.8982 H         1 <0>         0.1200
     37 H10        -3.2406   -5.7887   -6.2499 H         1 <0>         0.1381
     38 H11        -4.4357   -3.1549   -3.0833 H         1 <0>         0.1190
@<TRIPOS>BOND
     1    1    6 ar
     2    1    2 ar
     3    1   29 1
     4    2    3 ar
     5    2   30 1
     6    3    4 ar
     7    3   28 1
     8    4    5 ar
     9    4   31 1
    10    5    6 ar
    11    5   32 1
    12    6    7 1
    13    7    8 1
    14    7   33 1
    15    8    9 1
    16    8   14 1
    17    8   10 1
    18   10   11 1
    19   10   34 1
    20   10   35 1
    21   11   12 2
    22   11   13 am
    23   13   14 am
    24   13   16 1
    25   14   15 2
    26   16   21 ar
    27   16   17 ar
    28   17   18 ar
    29   17   36 1
    30   18   19 ar
    31   18   25 1
    32   19   20 ar
    33   19   37 1
    34   20   21 ar
    35   20   22 1
    36   21   38 1
    37   22   23 2
    38   22   24 1
    39   25   26 2
    40   25   27 1
@<TRIPOS>MOLECULE
ZINC09234444
   45    48     0     0     0
SMALL
USER_CHARGES
5-[5-[(2,4,6-trioxo-1-phenyl-hexahydropyrimidin-5-ylidene)methyl]-2-furyl]benzene-1,3-dicarboxylic acid
@<TRIPOS>ATOM
      1 C1         -2.8526    0.0897   -5.3405 C.ar      1 <0>        -0.1036
      2 C2         -3.3764    0.9097   -4.3580 C.ar      1 <0>        -0.0995
      3 C3         -2.5340    1.5584   -3.4764 C.ar      1 <0>        -0.0822
      4 C4         -1.1600    1.3870   -3.5778 C.ar      1 <0>         0.1254
      5 C5         -0.6367    0.5679   -4.5692 C.ar      1 <0>        -0.0969
      6 C6         -1.4845   -0.0831   -5.4440 C.ar      1 <0>        -0.1155
      7 N1         -0.3027    2.0438   -2.6847 N.am      1 <0>        -0.5161
      8 C7          0.0970    1.4062   -1.5652 C.2       1 <0>         0.5506
      9 O1         -0.2769    0.2735   -1.3241 O.2       1 <0>        -0.4367
     10 C8          1.0024    2.1150   -0.6458 C.2       1 <0>        -0.3165
     11 C9          1.4610    1.5183    0.5259 C.2       1 <0>         0.1685
     12 C10         0.9052    0.3071    0.9592 C.2       1 <0>        -0.1008
     13 C11         1.5859   -0.7173    1.6061 C.2       1 <0>        -0.0914
     14 C12         0.6563   -1.7243    1.8531 C.2       1 <0>        -0.2440
     15 C13        -0.5546   -1.2889    1.3540 C.2       1 <0>         0.1658
     16 O2         -0.3864   -0.0650    0.8260 O.3       1 <0>        -0.1180
     17 C14        -1.8240   -2.0403    1.3982 C.ar      1 <0>        -0.1064
     18 C15        -1.8841   -3.2715    2.0528 C.ar      1 <0>        -0.0405
     19 C16        -3.0854   -3.9781    2.0996 C.ar      1 <0>        -0.1443
     20 C17        -4.2236   -3.4605    1.4818 C.ar      1 <0>         0.0023
     21 C18        -4.1627   -2.2329    0.8225 C.ar      1 <0>        -0.1449
     22 C19        -2.9635   -1.5226    0.7804 C.ar      1 <0>        -0.0384
     23 C20        -5.3691   -1.6852    0.1682 C.2       1 <0>         0.4980
     24 O3         -5.3461   -0.5698   -0.3121 O.co2     1 <0>        -0.6398
     25 C21        -3.1509   -5.2782    2.7988 C.2       1 <0>         0.4988
     26 O4         -2.1597   -5.7291    3.3369 O.co2     1 <0>        -0.6431
     27 C22         1.4026    3.4822   -1.0192 C.2       1 <0>         0.5794
     28 O5          2.1483    4.1307   -0.3091 O.2       1 <0>        -0.5017
     29 N2          0.9201    3.9965   -2.1691 N.am      1 <0>        -0.6633
     30 C23         0.0980    3.2930   -2.9603 C.2       1 <0>         0.7136
     31 O6         -0.3017    3.8134   -3.9834 O.2       1 <0>        -0.5267
     32 H1         -3.5133   -0.4171   -6.0283 H         1 <0>         0.1278
     33 H2         -4.4453    1.0427   -4.2797 H         1 <0>         0.1350
     34 H3         -2.9438    2.1982   -2.7088 H         1 <0>         0.1271
     35 H4          0.4319    0.4363   -4.6535 H         1 <0>         0.1205
     36 H5         -1.0783   -0.7244   -6.2122 H         1 <0>         0.1275
     37 H6          2.2449    1.9890    1.1006 H         1 <0>         0.1741
     38 H7          2.6338   -0.7299    1.8672 H         1 <0>         0.1596
     39 H8          0.8468   -2.6678    2.3430 H         1 <0>         0.1625
     40 H9         -1.0015   -3.6748    2.5269 H         1 <0>         0.1298
     41 H10        -5.1526   -4.0103    1.5142 H         1 <0>         0.1461
     42 H11        -2.9166   -0.5719    0.2702 H         1 <0>         0.1276
     43 H12         1.1740    4.8957   -2.4294 H         1 <0>         0.4322
     44 O7         -6.4943   -2.4229    0.1042 O.co2     1 <0>        -0.7519
     45 O8         -4.3099   -5.9635    2.8393 O.co2     1 <0>        -0.7499
@<TRIPOS>BOND
     1    1    6 ar
     2    1    2 ar
     3    1   32 1
     4    2    3 ar
     5    2   33 1
     6    3    4 ar
     7    3   34 1
     8    4    5 ar
     9    4    7 1
    10    5    6 ar
    11    5   35 1
    12    6   36 1
    13    7   30 am
    14    7    8 am
    15    8    9 2
    16    8   10 1
    17   10   11 2
    18   10   27 1
    19   11   12 1
    20   11   37 1
    21   12   16 1
    22   12   13 2
    23   13   14 1
    24   13   38 1
    25   14   15 2
    26   14   39 1
    27   15   16 1
    28   15   17 1
    29   17   22 ar
    30   17   18 ar
    31   18   19 ar
    32   18   40 1
    33   19   20 ar
    34   19   25 1
    35   20   21 ar
    36   20   41 1
    37   21   22 ar
    38   21   23 1
    39   22   42 1
    40   23   24 2
    41   23   44 1
    42   25   26 2
    43   25   45 1
    44   27   28 2
    45   27   29 am
    46   29   30 am
    47   29   43 1
    48   30   31 2
@<TRIPOS>MOLECULE
ZINC19801236
   44    47     0     0     0
SMALL
USER_CHARGES
3-[N-[(2,4-dinitrophenyl)amino]-C-(1H-tetrazol-5-yl)carbonimidoyl]-4-hydroxy-1-methyl-quinolin-2-one
@<TRIPOS>ATOM
      1 C1          0.1743    4.2222   -2.6024 C.3       1 <0>         0.0728
      2 N1         -0.5643    4.3823   -1.3474 N.pl3     1 <0>        -0.5419
      3 C2         -0.0709    3.8036   -0.1956 C.ar      1 <0>         0.2084
      4 C3          1.1164    3.0785   -0.2394 C.ar      1 <0>        -0.1961
      5 C4          1.6130    2.4986    0.9089 C.ar      1 <0>        -0.0778
      6 C5          0.9401    2.6295    2.1174 C.ar      1 <0>        -0.1841
      7 C6         -0.2277    3.3306    2.1874 C.ar      1 <0>        -0.0280
      8 C7         -0.7519    3.9351    1.0315 C.ar      1 <0>        -0.1371
      9 C8         -1.9616    4.6681    1.0987 C.2       1 <0>         0.3703
     10 C9         -2.4661    5.2615   -0.0885 C.2       1 <0>        -0.4421
     11 C10        -1.7085    5.0897   -1.3434 C.2       1 <0>         0.5705
     12 O1         -2.1191    5.5875   -2.3743 O.3       1 <0>        -0.5758
     13 C11        -3.6605    5.9957   -0.0690 C.2       1 <0>         0.4795
     14 N2         -3.6256    7.3471    0.0794 N.2       1 <0>        -0.3616
     15 N3         -4.7243    8.0103    0.2100 N.pl3     1 <0>        -0.4034
     16 C12        -4.6860    9.3654    0.4582 C.ar      1 <0>         0.2982
     17 C13        -3.4653   10.0458    0.4519 C.ar      1 <0>        -0.1452
     18 C14        -3.4339   11.4010    0.7003 C.ar      1 <0>        -0.0028
     19 C15        -4.6091   12.0889    0.9559 C.ar      1 <0>        -0.0924
     20 C16        -5.8223   11.4205    0.9636 C.ar      1 <0>         0.0822
     21 C17        -5.8680   10.0659    0.7114 C.ar      1 <0>        -0.1034
     22 N4         -7.1658    9.3543    0.7144 N.pl3     1 <0>         0.0145
     23 O2         -8.2891   10.0337    0.8205 O.2       1 <0>        -0.1838
     24 O3         -7.1973    8.0418    0.6110 O.3       1 <0>        -0.2035
     25 N5         -4.5681   13.5444    1.2214 N.pl3     1 <0>         0.0175
     26 O4         -3.4162   14.1828    1.2143 O.2       1 <0>        -0.2082
     27 O5         -5.6835   14.2011    1.4646 O.3       1 <0>        -0.2155
     28 C18        -4.9495    5.3052   -0.2090 C.2       1 <0>         0.0220
     29 N6         -5.3052    4.1110    0.3481 N.2       1 <0>        -0.3135
     30 N7         -6.5170    3.8707   -0.0234 N.2       1 <0>        -0.1875
     31 N8         -6.9283    4.8293   -0.7759 N.2       1 <0>        -0.1908
     32 N9         -6.0008    5.7135   -0.9070 N.2       1 <0>        -0.3625
     33 O6         -2.6204    4.7993    2.2647 O.2       1 <0>        -0.6344
     34 H1          1.0773    3.6205   -2.4222 H         1 <0>         0.0804
     35 H2          0.4635    5.2116   -2.9864 H         1 <0>         0.0653
     36 H3         -0.4634    3.7143   -3.3409 H         1 <0>         0.0648
     37 H4          1.6485    2.9697   -1.1729 H         1 <0>         0.1257
     38 H5          2.5344    1.9366    0.8683 H         1 <0>         0.1158
     39 H6          1.3426    2.1687    3.0074 H         1 <0>         0.1153
     40 H7         -0.7468    3.4243    3.1298 H         1 <0>         0.1336
     41 H8         -5.6919    7.4943    0.1233 H         1 <0>         0.4442
     42 H9         -2.5486    9.5107    0.2524 H         1 <0>         0.1753
     43 H10        -2.4912   11.9280    0.6954 H         1 <0>         0.1611
     44 H11        -6.7349   11.9625    1.1631 H         1 <0>         0.1742
@<TRIPOS>BOND
     1    1    2 1
     2    1   34 1
     3    1   35 1
     4    1   36 1
     5    2   11 1
     6    2    3 1
     7    3    8 ar
     8    3    4 ar
     9    4    5 ar
    10    4   37 1
    11    5    6 ar
    12    5   38 1
    13    6    7 ar
    14    6   39 1
    15    7    8 ar
    16    7   40 1
    17    8    9 1
    18    9   10 1
    19    9   33 2
    20   10   11 2
    21   10   13 1
    22   11   12 1
    23   13   14 2
    24   13   28 1
    25   14   15 1
    26   15   16 1
    27   15   41 1
    28   16   21 ar
    29   16   17 ar
    30   17   18 ar
    31   17   42 1
    32   18   19 ar
    33   18   43 1
    34   19   20 ar
    35   19   25 1
    36   20   21 ar
    37   20   44 1
    38   21   22 1
    39   22   23 2
    40   22   24 1
    41   25   26 2
    42   25   27 1
    43   28   32 2
    44   28   29 1
    45   29   30 1
    46   30   31 2
    47   31   32 1
@<TRIPOS>MOLECULE
ZINC27522775
   55    57     0     0     0
SMALL
USER_CHARGES
2-[4-[(E)-[1-(4-tert-butylphenyl)-2,4,6-trioxo-hexahydropyrimidin-5-ylidene]methyl]-2-methoxy-phenoxy]acetic acid
@<TRIPOS>ATOM
      1 C1         12.1440    4.9533    0.6360 C.3       1 <0>        -0.1389
      2 C2         11.0039    5.9727    0.6796 C.3       1 <0>        -0.0255
      3 C3         11.1489    6.9503   -0.4884 C.3       1 <0>        -0.1445
      4 C4         11.0594    6.7437    2.0000 C.3       1 <0>        -0.1383
      5 C5          9.6835    5.2543    0.5725 C.ar      1 <0>        -0.0812
      6 C6          9.3297    4.3152    1.5239 C.ar      1 <0>        -0.1092
      7 C7          8.1200    3.6556    1.4286 C.ar      1 <0>        -0.1002
      8 C8          7.2590    3.9358    0.3761 C.ar      1 <0>         0.1614
      9 C9          7.6195    4.8751   -0.5807 C.ar      1 <0>        -0.1008
     10 C10         8.8279    5.5360   -0.4767 C.ar      1 <0>        -0.1144
     11 N1          6.0311    3.2678    0.2765 N.am      1 <0>        -0.5516
     12 C11         4.9359    3.8144    0.8436 C.2       1 <0>         0.5694
     13 O1          5.0024    4.8742    1.4371 O.2       1 <0>        -0.5325
     14 C12         3.6549    3.0910    0.7244 C.2       1 <0>        -0.2775
     15 C13         2.4910    3.5881    1.2795 C.2       1 <0>         0.0571
     16 C14         1.2043    2.9752    0.9510 C.ar      1 <0>        -0.0979
     17 C15         0.8778    2.6960   -0.3849 C.ar      1 <0>        -0.0047
     18 C16        -0.3336    2.1199   -0.6899 C.ar      1 <0>        -0.1943
     19 C17        -1.2386    1.8179    0.3212 C.ar      1 <0>         0.1342
     20 C18        -0.9202    2.0872    1.6534 C.ar      1 <0>         0.0682
     21 C19         0.2915    2.6646    1.9706 C.ar      1 <0>        -0.1407
     22 O2         -1.8076    1.7851    2.6386 O.3       1 <0>        -0.3025
     23 C20        -1.4189    2.0932    3.9787 C.3       1 <0>         0.0264
     24 O3         -2.4340    1.2544    0.0124 O.3       1 <0>        -0.2768
     25 C21        -2.6938    1.0003   -1.3696 C.3       1 <0>         0.0146
     26 C22        -4.0581    0.3776   -1.5181 C.2       1 <0>         0.4723
     27 O4         -4.7381    0.1724   -0.5407 O.co2     1 <0>        -0.6151
     28 O5         -4.5177    0.0509   -2.7361 O.co2     1 <0>        -0.7624
     29 C23         3.6734    1.8096   -0.0088 C.2       1 <0>         0.5284
     30 O6          2.6587    1.1530   -0.1453 O.3       1 <0>        -0.5321
     31 N2          4.8458    1.3898   -0.5276 N.2       1 <0>        -0.7038
     32 C24         5.9724    2.1006   -0.3796 C.2       1 <0>         0.6621
     33 O7          6.9962    1.6631   -0.8670 O.2       1 <0>        -0.5859
     34 H1         12.0397    4.2505    1.4757 H         1 <0>         0.0572
     35 H2         13.1078    5.4776    0.7142 H         1 <0>         0.0536
     36 H3         12.1041    4.3990   -0.3133 H         1 <0>         0.0580
     37 H4         10.3292    7.6832   -0.4570 H         1 <0>         0.0591
     38 H5         11.1090    6.3959   -1.4376 H         1 <0>         0.0599
     39 H6         12.1127    7.4746   -0.4102 H         1 <0>         0.0537
     40 H7         10.2397    7.4766    2.0314 H         1 <0>         0.0569
     41 H8         12.0233    7.2680    2.0782 H         1 <0>         0.0537
     42 H9         10.9551    6.0408    2.8397 H         1 <0>         0.0569
     43 H10         9.9999    4.0976    2.3424 H         1 <0>         0.1197
     44 H11         7.8442    2.9222    2.1720 H         1 <0>         0.1188
     45 H12         6.9538    5.0920   -1.4030 H         1 <0>         0.1192
     46 H13         9.1066    6.2704   -1.2178 H         1 <0>         0.1256
     47 H14         2.5323    4.4447    1.9684 H         1 <0>         0.1347
     48 H15         1.5769    2.9336   -1.1730 H         1 <0>         0.1199
     49 H16        -0.5842    1.9058   -1.7183 H         1 <0>         0.1350
     50 H17         0.5369    2.8774    3.0006 H         1 <0>         0.1285
     51 H18        -2.2225    1.7997    4.6702 H         1 <0>         0.0936
     52 H19        -1.2350    3.1740    4.0678 H         1 <0>         0.0482
     53 H20        -0.5001    1.5430    4.2296 H         1 <0>         0.0495
     54 H21        -2.6599    1.9468   -1.9291 H         1 <0>         0.0658
     55 H22        -1.9319    0.3128   -1.7656 H         1 <0>         0.0692
@<TRIPOS>BOND
     1    1    2 1
     2    1   34 1
     3    1   35 1
     4    1   36 1
     5    2    3 1
     6    2    4 1
     7    2    5 1
     8    3   37 1
     9    3   38 1
    10    3   39 1
    11    4   40 1
    12    4   41 1
    13    4   42 1
    14    5   10 ar
    15    5    6 ar
    16    6    7 ar
    17    6   43 1
    18    7    8 ar
    19    7   44 1
    20    8    9 ar
    21    8   11 1
    22    9   10 ar
    23    9   45 1
    24   10   46 1
    25   11   32 am
    26   11   12 am
    27   12   13 2
    28   12   14 1
    29   14   15 2
    30   14   29 1
    31   15   16 1
    32   15   47 1
    33   16   21 ar
    34   16   17 ar
    35   17   18 ar
    36   17   48 1
    37   18   19 ar
    38   18   49 1
    39   19   20 ar
    40   19   24 1
    41   20   21 ar
    42   20   22 1
    43   21   50 1
    44   22   23 1
    45   23   51 1
    46   23   52 1
    47   23   53 1
    48   24   25 1
    49   25   26 1
    50   25   54 1
    51   25   55 1
    52   26   27 2
    53   26   28 1
    54   29   30 1
    55   29   31 2
    56   31   32 1
    57   32   33 2
@<TRIPOS>MOLECULE
ZINC13214001
   48    52     0     0     0
SMALL
USER_CHARGES

@<TRIPOS>ATOM
      1 C1          0.0045    1.3811    0.0170 C.ar      1 <0>        -0.1172
      2 C2          1.1892    2.0883    0.0008 C.ar      1 <0>        -0.1181
      3 C3          2.4090    1.4072   -0.0238 C.ar      1 <0>        -0.1117
      4 C4          2.4230    0.0110   -0.0318 C.ar      1 <0>        -0.1200
      5 C5          1.2268   -0.6891   -0.0153 C.ar      1 <0>         0.1645
      6 C6          0.0186   -0.0011    0.0091 C.ar      1 <0>        -0.1641
      7 N1          1.2350   -2.0870   -0.0232 N.am      1 <0>        -0.5481
      8 C7          0.0536   -2.9579   -0.0138 C.3       1 <0>         0.2661
      9 H1         -0.5549   -2.7739   -0.8992 H         1 <0>         0.0779
     10 C8          0.5765   -4.3755   -0.0280 C.2       1 <0>        -0.5030
     11 C9          1.9270   -4.2931   -0.0438 C.2       1 <0>         0.2774
     12 C10         2.3271   -2.8724   -0.0466 C.2       1 <0>         0.5025
     13 O1          3.4741   -2.4712   -0.0644 O.2       1 <0>        -0.4957
     14 O2          2.7767   -5.3470   -0.0600 O.3       1 <0>        -0.6501
     15 C11        -0.2255   -5.6042   -0.0252 C.2       1 <0>         0.5458
     16 O3         -0.1806   -6.3589    0.9304 O.2       1 <0>        -0.4562
     17 C12        -1.0807   -5.9239   -1.1720 C.2       1 <0>        -0.0539
     18 C13        -1.9560   -6.9848   -1.2612 C.2       1 <0>        -0.1636
     19 C14        -2.5579   -6.9008   -2.5251 C.2       1 <0>        -0.2290
     20 C15        -2.0381   -5.8163   -3.1440 C.2       1 <0>        -0.0323
     21 O4         -1.1554   -5.2287   -2.3259 O.3       1 <0>        -0.1396
     22 C16        -0.7587   -2.7161    1.2323 C.ar      1 <0>        -0.0598
     23 C17        -0.1278   -2.6131    2.4581 C.ar      1 <0>        -0.0753
     24 C18        -0.8695   -2.3927    3.6032 C.ar      1 <0>        -0.1088
     25 C19        -2.2492   -2.2740    3.5254 C.ar      1 <0>         0.0388
     26 C20        -2.8832   -2.3751    2.2928 C.ar      1 <0>         0.0453
     27 C21        -2.1325   -2.5922    1.1469 C.ar      1 <0>        -0.1078
     28 O5         -4.2351   -2.2539    2.1929 O.3       1 <0>        -0.3090
     29 C22        -4.9859   -2.4034    3.4028 C.3       1 <0>         0.0222
     30 C23        -4.3027   -1.5734    4.4981 C.3       1 <0>         0.0216
     31 O6         -2.9666   -2.0611    4.6623 O.3       1 <0>        -0.3103
     32 C24         3.6776    2.1606   -0.0417 C.2       1 <0>         0.5224
     33 O7          3.6627    3.3834   -0.0350 O.co2     1 <0>        -0.6980
     34 O8          4.7439    1.5622   -0.0631 O.co2     1 <0>        -0.6806
     35 H2         -0.9372    1.9093    0.0405 H         1 <0>         0.1111
     36 H3          1.1737    3.1682    0.0067 H         1 <0>         0.1203
     37 H4          3.3624   -0.5215   -0.0511 H         1 <0>         0.1576
     38 H5         -0.9122   -0.5487    0.0222 H         1 <0>         0.1153
     39 H6         -2.1416   -7.7342   -0.5060 H         1 <0>         0.1515
     40 H7         -3.2980   -7.5758   -2.9287 H         1 <0>         0.1463
     41 H8         -2.2965   -5.4764   -4.1360 H         1 <0>         0.2005
     42 H9          0.9464   -2.7053    2.5210 H         1 <0>         0.1291
     43 H10        -0.3743   -2.3131    4.5597 H         1 <0>         0.1310
     44 H11        -2.6224   -2.6687    0.1874 H         1 <0>         0.1311
     45 H12        -6.0037   -2.0443    3.2506 H         1 <0>         0.1143
     46 H13        -5.0058   -3.4531    3.6957 H         1 <0>         0.0724
     47 H14        -4.2773   -0.5245    4.2026 H         1 <0>         0.0735
     48 H15        -4.8502   -1.6789    5.4347 H         1 <0>         0.1138
@<TRIPOS>BOND
     1    1    6 ar
     2    1    2 ar
     3    1   35 1
     4    2    3 ar
     5    2   36 1
     6    3    4 ar
     7    3   32 1
     8    4    5 ar
     9    4   37 1
    10    5    6 ar
    11    5    7 1
    12    6   38 1
    13    7   12 am
    14    7    8 1
    15    8    9 1
    16    8   10 1
    17    8   22 1
    18   10   11 2
    19   10   15 1
    20   11   12 1
    21   11   14 1
    22   12   13 2
    23   15   16 2
    24   15   17 1
    25   17   21 1
    26   17   18 2
    27   18   19 1
    28   18   39 1
    29   19   20 2
    30   19   40 1
    31   20   21 1
    32   20   41 1
    33   22   27 ar
    34   22   23 ar
    35   23   24 ar
    36   23   42 1
    37   24   25 ar
    38   24   43 1
    39   25   31 1
    40   25   26 ar
    41   26   27 ar
    42   26   28 1
    43   27   44 1
    44   28   29 1
    45   29   30 1
    46   29   45 1
    47   29   46 1
    48   30   31 1
    49   30   47 1
    50   30   48 1
    51   32   33 2
    52   32   34 1
@<TRIPOS>MOLECULE
ZINC04517673
   46    48     0     0     0
SMALL
USER_CHARGES

@<TRIPOS>ATOM
      1 C1         -0.0169    1.3986    0.0097 C.ar      1 <0>        -0.1059
      2 C2          1.1514    2.0957    0.0023 C.ar      1 <0>        -0.1067
      3 C3          2.3821    1.4202   -0.0135 C.ar      1 <0>        -0.1360
      4 C4          2.4182    0.0245   -0.0213 C.ar      1 <0>        -0.0896
      5 C5          1.2337   -0.6919   -0.0133 C.ar      1 <0>         0.0731
      6 C6          0.0021   -0.0041    0.0020 C.ar      1 <0>        -0.0906
      7 C7         -1.0155   -0.9866    0.0060 C.2       1 <0>        -0.2099
      8 C8         -0.4167   -2.2059   -0.0065 C.2       1 <0>         0.1517
      9 N1          0.9478   -2.0427   -0.0177 N.pl3     1 <0>        -0.5869
     10 H1          1.6023   -2.7586   -0.0284 H         1 <0>         0.4118
     11 C9         -1.1221   -3.5044   -0.0070 C.ar      1 <0>        -0.0300
     12 C10        -0.3939   -4.6957   -0.0143 C.ar      1 <0>        -0.1738
     13 C11        -1.0528   -5.9068   -0.0147 C.ar      1 <0>        -0.0853
     14 C12        -2.4413   -5.9451   -0.0080 C.ar      1 <0>         0.1823
     15 C13        -3.1739   -4.7582   -0.0007 C.ar      1 <0>         0.1285
     16 C14        -2.5182   -3.5420    0.0056 C.ar      1 <0>        -0.2100
     17 O1         -4.5335   -4.7980    0.0058 O.3       1 <0>        -0.1889
     18 C15        -5.2192   -3.5442    0.0131 C.3       1 <0>        -0.0091
     19 C16        -6.7068   -3.7853    0.0196 C.2       1 <0>         0.4950
     20 O2         -7.1396   -4.9251    0.0182 O.co2     1 <0>        -0.6154
     21 O3         -7.4774   -2.8406    0.0263 O.co2     1 <0>        -0.7377
     22 N2         -3.1052   -7.1746   -0.0090 N.pl3     1 <0>        -0.6235
     23 C17        -3.4469   -7.8235    1.2592 C.3       1 <0>         0.0977
     24 C18        -4.8143   -7.3710    1.7026 C.2       1 <0>         0.4388
     25 O4         -5.4449   -6.5798    1.0223 O.co2     1 <0>        -0.5858
     26 O5         -5.2900   -7.7961    2.7416 O.co2     1 <0>        -0.7612
     27 C19        -3.4595   -7.8147   -1.2782 C.3       1 <0>         0.1053
     28 C20        -2.3308   -8.7093   -1.7219 C.2       1 <0>         0.4768
     29 O6         -1.3238   -8.8034   -1.0411 O.co2     1 <0>        -0.6928
     30 O7         -2.4247   -9.3389   -2.7618 O.co2     1 <0>        -0.7369
     31 C21         3.6383    2.1859   -0.0223 C.2       1 <0>         0.5284
     32 O8          3.6093    3.4092   -0.0159 O.co2     1 <0>        -0.6999
     33 O9          4.7122    1.5995   -0.0361 O.co2     1 <0>        -0.6989
     34 H2         -0.9596    1.9254    0.0261 H         1 <0>         0.1111
     35 H3          1.1320    3.1755    0.0083 H         1 <0>         0.1185
     36 H4          3.3657   -0.4937   -0.0338 H         1 <0>         0.1183
     37 H5         -2.0793   -0.8006    0.0169 H         1 <0>         0.1399
     38 H6          0.6857   -4.6685   -0.0199 H         1 <0>         0.0992
     39 H7         -0.4883   -6.8275   -0.0207 H         1 <0>         0.1390
     40 H8         -3.0841   -2.6222    0.0157 H         1 <0>         0.1215
     41 H9         -4.9384   -2.9817    0.9034 H         1 <0>         0.0379
     42 H10        -4.9471   -2.9761   -0.8765 H         1 <0>         0.0341
     43 H11        -3.4480   -8.9053    1.1251 H         1 <0>         0.0395
     44 H12        -2.7112   -7.5520    2.0162 H         1 <0>         0.0313
     45 H13        -4.3635   -8.4091   -1.1455 H         1 <0>         0.0524
     46 H14        -3.6355   -7.0496   -2.0343 H         1 <0>         0.0428
@<TRIPOS>BOND
     1    1    6 ar
     2    1    2 ar
     3    1   34 1
     4    2    3 ar
     5    2   35 1
     6    3    4 ar
     7    3   31 1
     8    4    5 ar
     9    4   36 1
    10    5    9 1
    11    5    6 ar
    12    6    7 1
    13    7    8 2
    14    7   37 1
    15    8    9 1
    16    8   11 1
    17    9   10 1
    18   11   16 ar
    19   11   12 ar
    20   12   13 ar
    21   12   38 1
    22   13   14 ar
    23   13   39 1
    24   14   15 ar
    25   14   22 1
    26   15   16 ar
    27   15   17 1
    28   16   40 1
    29   17   18 1
    30   18   19 1
    31   18   41 1
    32   18   42 1
    33   19   20 2
    34   19   21 1
    35   22   23 1
    36   22   27 1
    37   23   24 1
    38   23   43 1
    39   23   44 1
    40   24   25 2
    41   24   26 1
    42   27   28 1
    43   27   45 1
    44   27   46 1
    45   28   29 2
    46   28   30 1
    47   31   32 2
    48   31   33 1
@<TRIPOS>MOLECULE
ZINC13203492
   47    50     0     0     0
SMALL
USER_CHARGES
2-[3-[(1S)-2-(2,3-dihydro-1,4-benzodioxin-6-ylamino)-1-methyl-2-oxo-ethyl]sulfanyl-5-(2-thienyl)-1,2,4-triazol-4-yl]acetic acid
@<TRIPOS>ATOM
      1 C1          5.5662   -2.8668   -1.2526 C.3       1 <0>        -0.1460
      2 C2          4.9527   -2.7393    0.1432 C.3       1 <0>        -0.1137
      3 H1          5.6326   -2.1841    0.7895 H         1 <0>         0.1268
      4 C3          3.6387   -2.0074    0.0495 C.2       1 <0>         0.5404
      5 O1          2.5968   -2.6283    0.0584 O.2       1 <0>        -0.4954
      6 N1          3.6213   -0.6630   -0.0442 N.am      1 <0>        -0.6651
      7 C4          2.4012    0.0251   -0.0200 C.ar      1 <0>         0.1577
      8 C5          1.3452   -0.4598    0.7400 C.ar      1 <0>        -0.1136
      9 C6          0.1419    0.2180    0.7638 C.ar      1 <0>        -0.0901
     10 C7         -0.0157    1.3842    0.0293 C.ar      1 <0>         0.0334
     11 C8          1.0404    1.8734   -0.7305 C.ar      1 <0>         0.0692
     12 C9          2.2476    1.1919   -0.7551 C.ar      1 <0>        -0.1396
     13 O2          0.9074    3.0206   -1.4509 O.3       1 <0>        -0.3069
     14 C10        -0.4278    3.4735   -1.6998 C.3       1 <0>         0.0209
     15 C11        -1.2146    3.3963   -0.3844 C.3       1 <0>         0.0205
     16 O3         -1.2121    2.0344    0.0588 O.3       1 <0>        -0.3068
     17 S1          4.6764   -4.3893    0.8338 S.3       1 <0>         0.0878
     18 C12         6.3424   -4.9466    0.9708 C.2       1 <0>         0.1576
     19 N2          7.4191   -4.2726    0.6365 N.2       1 <0>        -0.2965
     20 N3          8.4703   -4.9750    0.8663 N.2       1 <0>        -0.2662
     21 C13         8.1294   -6.1438    1.3629 C.2       1 <0>         0.2658
     22 N4          6.7549   -6.1588    1.4504 N.pl3     1 <0>        -0.4153
     23 C14         5.9112   -7.2473    1.9498 C.3       1 <0>         0.0434
     24 C15         5.5481   -8.1646    0.8106 C.2       1 <0>         0.4599
     25 O4          5.9527   -7.9329   -0.3040 O.co2     1 <0>        -0.6078
     26 C16         9.0435   -7.2279    1.7567 C.2       1 <0>        -0.0874
     27 C17        10.4001   -7.1849    1.9576 C.2       1 <0>        -0.1186
     28 C18        11.0495   -8.3399    2.3316 C.2       1 <0>        -0.1596
     29 C19        10.3333   -9.4845    2.4786 C.2       1 <0>        -0.1859
     30 S2          8.6771   -8.9433    2.0900 S.3       1 <0>         0.1196
     31 H2          4.8864   -3.4220   -1.8989 H         1 <0>         0.0728
     32 H3          5.7326   -1.8730   -1.6685 H         1 <0>         0.0679
     33 H4          6.5166   -3.3961   -1.1848 H         1 <0>         0.0959
     34 H5          4.4535   -0.1719   -0.1284 H         1 <0>         0.4154
     35 H6          1.4648   -1.3674    1.3131 H         1 <0>         0.1470
     36 H7         -0.6783   -0.1610    1.3554 H         1 <0>         0.1401
     37 H8          3.0686    1.5694   -1.3465 H         1 <0>         0.1393
     38 H9         -0.4061    4.5037   -2.0552 H         1 <0>         0.1217
     39 H10        -0.8985    2.8363   -2.4483 H         1 <0>         0.0783
     40 H11        -0.7401    4.0293    0.3655 H         1 <0>         0.0770
     41 H12        -2.2401    3.7268   -0.5496 H         1 <0>         0.1211
     42 H13         6.4546   -7.8090    2.7096 H         1 <0>         0.1039
     43 H14         5.0025   -6.8320    2.3856 H         1 <0>         0.1070
     44 H15        10.9471   -6.2627    1.8284 H         1 <0>         0.1420
     45 H16        12.1160   -8.3369    2.5016 H         1 <0>         0.1362
     46 H17        10.6773  -10.4692    2.7586 H         1 <0>         0.1875
     47 O5          4.7753   -9.2391    1.0343 O.co2     1 <0>        -0.7416
@<TRIPOS>BOND
     1    1    2 1
     2    1   31 1
     3    1   32 1
     4    1   33 1
     5    2    3 1
     6    2    4 1
     7    2   17 1
     8    4    5 2
     9    4    6 am
    10    6    7 1
    11    6   34 1
    12    7   12 ar
    13    7    8 ar
    14    8    9 ar
    15    8   35 1
    16    9   10 ar
    17    9   36 1
    18   10   16 1
    19   10   11 ar
    20   11   12 ar
    21   11   13 1
    22   12   37 1
    23   13   14 1
    24   14   15 1
    25   14   38 1
    26   14   39 1
    27   15   16 1
    28   15   40 1
    29   15   41 1
    30   17   18 1
    31   18   22 1
    32   18   19 2
    33   19   20 1
    34   20   21 2
    35   21   22 1
    36   21   26 1
    37   22   23 1
    38   23   24 1
    39   23   42 1
    40   23   43 1
    41   24   25 2
    42   24   47 1
    43   26   30 1
    44   26   27 2
    45   27   28 1
    46   27   44 1
    47   28   29 2
    48   28   45 1
    49   29   30 1
    50   29   46 1
@<TRIPOS>MOLECULE
ZINC22419154
   48    52     0     0     0
SMALL
USER_CHARGES
(2R)-N-(3-cyano-2-thienyl)-2-(2,8-dicyclopropyl-5,7-dioxo-pyrimido[5,6-e]pyrimidin-4-yl)sulfanyl-propanamide
@<TRIPOS>ATOM
      1 C1          4.8948    1.6543   -0.9913 C.3       1 <0>        -0.1473
      2 C2          5.0611    0.7940    0.2629 C.3       1 <0>        -0.1528
      3 H1          4.9167    1.4871    1.1048 H         1 <0>         0.1170
      4 C3          6.4999    0.3645    0.3904 C.2       1 <0>         0.5291
      5 O1          6.8521   -0.7122   -0.0429 O.2       1 <0>        -0.4776
      6 N1          7.3955    1.1769    0.9859 N.am      1 <0>        -0.6318
      7 C4          8.7207    0.7813    1.1032 C.2       1 <0>         0.1127
      8 C5          9.7807    1.4746    1.6734 C.2       1 <0>        -0.1548
      9 C6         11.0664    0.8195    1.6628 C.2       1 <0>        -0.0932
     10 C7         11.1301   -0.3990    1.0947 C.2       1 <0>        -0.2395
     11 S1          9.4546   -0.6927    0.5676 S.3       1 <0>         0.2481
     12 C8          9.6054    2.7747    2.2474 C.1       1 <0>         0.2736
     13 N2          9.4662    3.8062    2.7027 N.1       1 <0>        -0.4321
     14 S2          4.0037   -0.6694    0.1353 S.3       1 <0>         0.1620
     15 C9          2.4172    0.0970    0.1523 C.ar      1 <0>         0.1948
     16 C10         1.2439   -0.6687    0.0711 C.ar      1 <0>        -0.3067
     17 C11         1.2583   -2.1311   -0.0300 C.2       1 <0>         0.5342
     18 O2          2.3072   -2.7469   -0.0488 O.2       1 <0>        -0.5470
     19 N3          0.0719   -2.7758   -0.1017 N.2       1 <0>        -0.6917
     20 C12        -1.0878   -2.0998   -0.0821 C.2       1 <0>         0.6566
     21 O3         -2.1271   -2.7268   -0.1496 O.3       1 <0>        -0.5860
     22 N4         -1.1504   -0.7596    0.0094 N.pl3     1 <0>        -0.5418
     23 C13         0.0015   -0.0072    0.0882 C.ar      1 <0>         0.4526
     24 N5         -0.0171    1.3154    0.1799 N.ar      1 <0>        -0.5700
     25 C14         1.1102    1.9981    0.2538 C.ar      1 <0>         0.3718
     26 N6          2.2955    1.4226    0.2423 N.ar      1 <0>        -0.5693
     27 C15         1.0385    3.4999    0.3562 C.3       1 <0>        -0.1867
     28 C16         2.3496    4.2795    0.2371 C.3       1 <0>        -0.1115
     29 C17         1.6550    4.1537    1.5945 C.3       1 <0>        -0.1044
     30 C18        -2.4550   -0.0934    0.0250 C.3       1 <0>        -0.0033
     31 C19        -2.6885    0.9780    1.0920 C.3       1 <0>        -0.1222
     32 C20        -3.3816   -0.3820    1.2078 C.3       1 <0>        -0.1309
     33 H2          3.8445    1.9678   -1.0843 H         1 <0>         0.0986
     34 H3          5.1829    1.0699   -1.8776 H         1 <0>         0.0673
     35 H4          5.5374    2.5437   -0.9137 H         1 <0>         0.0610
     36 H5          7.0761    2.1534    1.3789 H         1 <0>         0.4492
     37 H6         11.9409    1.2885    2.0889 H         1 <0>         0.1430
     38 H7         11.9899   -1.0434    0.9852 H         1 <0>         0.1914
     39 H8          0.0585    3.5334   -0.1422 H         1 <0>         0.1459
     40 H9          3.1413    3.6112   -0.1325 H         1 <0>         0.1169
     41 H10         2.2169    5.1148   -0.4662 H         1 <0>         0.1034
     42 H11         0.9481    4.8850    2.0133 H         1 <0>         0.1064
     43 H12         1.8725    3.3814    2.3470 H         1 <0>         0.0987
     44 H13        -2.5259   -0.1506   -1.0712 H         1 <0>         0.1294
     45 H14        -1.7300    1.2415    1.5630 H         1 <0>         0.1133
     46 H15        -3.1252    1.8726    0.6240 H         1 <0>         0.1073
     47 H16        -4.3910   -0.6111    0.8354 H         1 <0>         0.1099
     48 H17        -2.9958   -1.2423    1.7745 H         1 <0>         0.1063
@<TRIPOS>BOND
     1    1    2 1
     2    1   33 1
     3    1   34 1
     4    1   35 1
     5    2    3 1
     6    2    4 1
     7    2   14 1
     8    4    5 2
     9    4    6 am
    10    6    7 1
    11    6   36 1
    12    7   11 1
    13    7    8 2
    14    8    9 1
    15    8   12 1
    16    9   10 2
    17    9   37 1
    18   10   11 1
    19   10   38 1
    20   12   13 3
    21   14   15 1
    22   15   26 ar
    23   15   16 ar
    24   16   23 ar
    25   16   17 1
    26   17   18 2
    27   17   19 1
    28   19   20 2
    29   20   21 1
    30   20   22 1
    31   22   23 1
    32   22   30 1
    33   23   24 ar
    34   24   25 ar
    35   25   26 ar
    36   25   27 1
    37   27   29 1
    38   27   28 1
    39   27   39 1
    40   28   29 1
    41   28   40 1
    42   28   41 1
    43   29   42 1
    44   29   43 1
    45   30   32 1
    46   30   31 1
    47   30   44 1
    48   31   32 1
    49   31   45 1
    50   31   46 1
    51   32   47 1
    52   32   48 1
@<TRIPOS>MOLECULE
ZINC35566046
   54    57     0     0     0
SMALL
USER_CHARGES

@<TRIPOS>ATOM
      1 C1         -0.0458    1.3001    0.4553 C.3       1 <0>        -0.0841
      2 C2         -0.3466   -0.1686    0.3022 C.2       1 <0>         0.1132
      3 C3         -0.3524   -0.7913   -0.9407 C.2       1 <0>        -0.2539
      4 S1         -0.7614   -2.4633   -0.4646 S.3       1 <0>         0.1608
      5 C4         -0.8781   -2.2105    1.1952 C.2       1 <0>         0.0243
      6 N1         -0.6118   -0.9314    1.3328 N.2       1 <0>        -0.5239
      7 C5         -1.2052   -3.2150    2.2699 C.3       1 <0>        -0.0614
      8 C6         -0.0951   -0.2313   -2.2714 C.2       1 <0>         0.5124
      9 O1          0.0169    0.9734   -2.4142 O.2       1 <0>        -0.4651
     10 C7          0.0275   -1.1222   -3.4312 C.2       1 <0>        -0.4715
     11 C8          0.1088   -0.7502   -4.7296 C.2       1 <0>         0.2897
     12 C9          0.2209   -1.9554   -5.5742 C.2       1 <0>         0.5092
     13 O2          0.3108   -1.9515   -6.7860 O.2       1 <0>        -0.4769
     14 N2          0.2087   -3.0590   -4.8047 N.am      1 <0>        -0.4956
     15 C10         0.0939   -2.6315   -3.4054 C.3       1 <0>         0.2519
     16 H1         -0.8158   -3.0392   -2.9647 H         1 <0>         0.0906
     17 C11         1.2986   -3.0840   -2.6212 C.ar      1 <0>        -0.0594
     18 C12         1.2087   -4.1892   -1.7955 C.ar      1 <0>        -0.0905
     19 C13         2.3110   -4.6083   -1.0741 C.ar      1 <0>        -0.1171
     20 C14         3.5094   -3.9205   -1.1780 C.ar      1 <0>         0.0762
     21 C15         3.6000   -2.8083   -2.0094 C.ar      1 <0>         0.0932
     22 C16         2.4926   -2.3964   -2.7335 C.ar      1 <0>        -0.1569
     23 O3          4.7739   -2.1300   -2.1148 O.3       1 <0>        -0.3114
     24 C17         4.7670   -0.9403   -2.9063 C.3       1 <0>         0.0246
     25 O4          4.5946   -4.3312   -0.4686 O.3       1 <0>        -0.4880
     26 C18         0.2952   -4.3625   -5.2518 C.2       1 <0>         0.3258
     27 N3          0.2812   -5.4746   -4.5367 N.2       1 <0>        -0.5642
     28 C19         0.3720   -6.6504   -5.0989 C.2       1 <0>         0.2106
     29 C20         0.4838   -6.6627   -6.4884 C.2       1 <0>        -0.3864
     30 S2          0.4361   -4.9117   -6.8364 S.3       1 <0>         0.2172
     31 C21         0.5971   -7.7537   -7.3729 C.2       1 <0>         0.4476
     32 O5          0.6066   -8.8887   -6.9395 O.2       1 <0>        -0.4732
     33 C22         0.7066   -7.5127   -8.8565 C.3       1 <0>        -0.1952
     34 C23         0.3572   -7.9222   -4.2905 C.3       1 <0>        -0.0882
     35 O6          0.0897    0.5254   -5.1824 O.3       1 <0>        -0.5840
     36 H2          1.0268    1.4391    0.5909 H         1 <0>         0.0720
     37 H3         -0.3712    1.8327   -0.4383 H         1 <0>         0.0957
     38 H4         -0.5755    1.6908    1.3242 H         1 <0>         0.0676
     39 H5         -0.2808   -3.6077    2.6936 H         1 <0>         0.0861
     40 H6         -1.7876   -2.7314    3.0541 H         1 <0>         0.0868
     41 H7         -1.7836   -4.0324    1.8394 H         1 <0>         0.0823
     42 H8          0.2753   -4.7261   -1.7136 H         1 <0>         0.1315
     43 H9          2.2380   -5.4715   -0.4292 H         1 <0>         0.1330
     44 H10         2.5613   -1.5358   -3.3824 H         1 <0>         0.1352
     45 H11         4.4266   -1.1766   -3.9145 H         1 <0>         0.0545
     46 H12         4.0943   -0.2093   -2.4577 H         1 <0>         0.0596
     47 H13         5.7748   -0.5274   -2.9506 H         1 <0>         0.0988
     48 H14         5.1496   -4.9716   -0.9344 H         1 <0>         0.3813
     49 H15         0.6806   -6.4410   -9.0534 H         1 <0>         0.0740
     50 H16         1.6456   -7.9270   -9.2235 H         1 <0>         0.0940
     51 H17        -0.1273   -7.9960   -9.3656 H         1 <0>         0.0943
     52 H18        -0.6700   -8.2690   -4.1777 H         1 <0>         0.0825
     53 H19         0.9441   -8.6849   -4.8024 H         1 <0>         0.0936
     54 H20         0.7868   -7.7325   -3.3069 H         1 <0>         0.0767
@<TRIPOS>BOND
     1    1    2 1
     2    1   36 1
     3    1   37 1
     4    1   38 1
     5    2    6 1
     6    2    3 2
     7    3    4 1
     8    3    8 1
     9    4    5 1
    10    5    6 2
    11    5    7 1
    12    7   39 1
    13    7   40 1
    14    7   41 1
    15    8    9 2
    16    8   10 1
    17   10   15 1
    18   10   11 2
    19   11   12 1
    20   11   35 1
    21   12   13 2
    22   12   14 am
    23   14   15 1
    24   14   26 1
    25   15   16 1
    26   15   17 1
    27   17   22 ar
    28   17   18 ar
    29   18   19 ar
    30   18   42 1
    31   19   20 ar
    32   19   43 1
    33   20   21 ar
    34   20   25 1
    35   21   22 ar
    36   21   23 1
    37   22   44 1
    38   23   24 1
    39   24   45 1
    40   24   46 1
    41   24   47 1
    42   25   48 1
    43   26   30 1
    44   26   27 2
    45   27   28 1
    46   28   29 2
    47   28   34 1
    48   29   30 1
    49   29   31 1
    50   31   32 2
    51   31   33 1
    52   33   49 1
    53   33   50 1
    54   33   51 1
    55   34   52 1
    56   34   53 1
    57   34   54 1
@<TRIPOS>MOLECULE
ZINC40054497
   53    55     0     0     0
SMALL
USER_CHARGES

@<TRIPOS>ATOM
      1 C1          0.7823    1.0570   -5.1529 C.2       1 <0>        -0.1745
      2 C2          0.2837    0.3437   -4.1737 C.2       1 <0>        -0.1535
      3 C3         -1.0752   -0.2910   -4.3198 C.3       1 <0>         0.0867
      4 O1         -1.0230   -1.6410   -3.8542 O.3       1 <0>        -0.3121
      5 C4         -2.1743   -2.3604   -3.9172 C.ar      1 <0>         0.1119
      6 C5         -3.3296   -1.7785   -4.4230 C.ar      1 <0>        -0.1941
      7 C6         -4.5041   -2.5052   -4.4893 C.ar      1 <0>        -0.0975
      8 C7         -4.5364   -3.8138   -4.0531 C.ar      1 <0>        -0.1028
      9 C8         -3.3799   -4.4077   -3.5434 C.ar      1 <0>        -0.0990
     10 C9         -2.1936   -3.6744   -3.4825 C.ar      1 <0>        -0.1044
     11 C10        -3.4104   -5.8100   -3.0750 C.2       1 <0>         0.5000
     12 O2         -2.3878   -6.3452   -2.6902 O.2       1 <0>        -0.4658
     13 C11        -4.6727   -6.5551   -3.0742 C.2       1 <0>        -0.5079
     14 C12        -4.9553   -7.6653   -3.7954 C.2       1 <0>         0.2719
     15 C13        -6.3379   -8.0971   -3.4999 C.2       1 <0>         0.5121
     16 O3         -6.8864   -9.0638   -3.9906 O.2       1 <0>        -0.5253
     17 N1         -6.8989   -7.2616   -2.6070 N.am      1 <0>        -0.6133
     18 C14        -5.9070   -6.2360   -2.2633 C.3       1 <0>         0.2574
     19 H1         -6.2847   -5.2486   -2.5286 H         1 <0>         0.0818
     20 C15        -5.5886   -6.2915   -0.7914 C.ar      1 <0>        -0.0209
     21 C16        -5.3031   -7.5036   -0.1912 C.ar      1 <0>        -0.0839
     22 C17        -5.0110   -7.5545    1.1590 C.ar      1 <0>        -0.0540
     23 C18        -5.0040   -6.3932    1.9089 C.ar      1 <0>        -0.0581
     24 C19        -5.2886   -5.1810    1.3085 C.ar      1 <0>        -0.0558
     25 C20        -5.5764   -5.1296   -0.0426 C.ar      1 <0>        -0.1167
     26 N2         -4.6922   -6.4478    3.3548 N.pl3     1 <0>         0.0407
     27 O4         -4.4437   -7.5080    3.8800 O.2       1 <0>        -0.1673
     28 O5         -4.6860   -5.4322    4.0106 O.3       1 <0>        -0.1713
     29 C21        -8.2579   -7.3611   -2.0689 C.3       1 <0>         0.1400
     30 C22        -8.2436   -8.2203   -0.8030 C.3       1 <0>        -0.1478
     31 C23        -9.6629   -8.3242   -0.2411 C.3       1 <0>         0.0809
     32 O6         -9.6495   -9.1268    0.9412 O.3       1 <0>        -0.5724
     33 O7         -4.1076   -8.2811   -4.6510 O.3       1 <0>        -0.6400
     34 H2          1.7562    1.5118   -5.0482 H         1 <0>         0.1069
     35 H3          0.2212    1.1864   -6.0667 H         1 <0>         0.0991
     36 H4          0.8467    0.2106   -3.2617 H         1 <0>         0.1199
     37 H5         -1.8026    0.2683   -3.7316 H         1 <0>         0.0709
     38 H6         -1.3706   -0.2797   -5.3690 H         1 <0>         0.0662
     39 H7         -3.3105   -0.7544   -4.7656 H         1 <0>         0.1245
     40 H8         -5.3991   -2.0469   -4.8833 H         1 <0>         0.1261
     41 H9         -5.4556   -4.3783   -4.1056 H         1 <0>         0.1363
     42 H10        -1.2948   -4.1294   -3.0930 H         1 <0>         0.1372
     43 H11        -5.3086   -8.4108   -0.7771 H         1 <0>         0.1418
     44 H12        -4.7887   -8.5015    1.6281 H         1 <0>         0.1493
     45 H13        -5.2834   -4.2738    1.8944 H         1 <0>         0.1489
     46 H14        -5.7951   -4.1820   -0.5125 H         1 <0>         0.1453
     47 H15        -8.6268   -6.3643   -1.8273 H         1 <0>         0.0777
     48 H16        -8.9102   -7.8197   -2.8120 H         1 <0>         0.0838
     49 H17        -7.8746   -9.2171   -1.0447 H         1 <0>         0.0759
     50 H18        -7.5912   -7.7617   -0.0599 H         1 <0>         0.0754
     51 H19       -10.0318   -7.3274    0.0005 H         1 <0>         0.0446
     52 H20       -10.3152   -8.7829   -0.9842 H         1 <0>         0.0473
     53 H21       -10.5179   -9.2358    1.3523 H         1 <0>         0.3774
@<TRIPOS>BOND
     1    1    2 2
     2    1   34 1
     3    1   35 1
     4    2    3 1
     5    2   36 1
     6    3    4 1
     7    3   37 1
     8    3   38 1
     9    4    5 1
    10    5   10 ar
    11    5    6 ar
    12    6    7 ar
    13    6   39 1
    14    7    8 ar
    15    7   40 1
    16    8    9 ar
    17    8   41 1
    18    9   10 ar
    19    9   11 1
    20   10   42 1
    21   11   12 2
    22   11   13 1
    23   13   18 1
    24   13   14 2
    25   14   15 1
    26   14   33 1
    27   15   16 2
    28   15   17 am
    29   17   18 1
    30   17   29 1
    31   18   19 1
    32   18   20 1
    33   20   25 ar
    34   20   21 ar
    35   21   22 ar
    36   21   43 1
    37   22   23 ar
    38   22   44 1
    39   23   24 ar
    40   23   26 1
    41   24   25 ar
    42   24   45 1
    43   25   46 1
    44   26   27 2
    45   26   28 1
    46   29   30 1
    47   29   47 1
    48   29   48 1
    49   30   31 1
    50   30   49 1
    51   30   50 1
    52   31   32 1
    53   31   51 1
    54   31   52 1
    55   32   53 1
@<TRIPOS>MOLECULE
ZINC19951329
   48    50     0     0     0
SMALL
USER_CHARGES

@<TRIPOS>ATOM
      1 C1          0.1175    1.5403    0.2164 C.ar      1 <0>        -0.0635
      2 C2          1.3130    2.2341    0.2352 C.ar      1 <0>        -0.1434
      3 C3          2.5118    1.5462    0.2109 C.ar      1 <0>        -0.0097
      4 C4          2.5151    0.1645    0.1683 C.ar      1 <0>        -0.6759
      5 C5          1.3197   -0.5293    0.1503 C.ar      1 <0>        -0.0244
      6 C6          0.1209    0.1586    0.1732 C.ar      1 <0>        -0.1412
      7 S1          4.0432   -0.7122    0.1361 S.o2      1 <0>         2.6811
      8 O1          3.7735   -1.9769   -0.4532 O.2       1 <0>        -0.9418
      9 O2          5.0136    0.1822   -0.3906 O.2       1 <0>        -0.9019
     10 N1          4.4731   -1.0047    1.7084 N.pl3     1 <0>        -0.9015
     11 C7          4.0315   -2.2339    2.3720 C.3       1 <0>         0.0959
     12 C8          5.1099   -3.2805    2.2599 C.2       1 <0>         0.5122
     13 O3          6.1455   -3.0248    1.6825 O.2       1 <0>        -0.4966
     14 N2          4.9237   -4.5006    2.8013 N.am      1 <0>        -0.5777
     15 N3          5.9263   -5.4736    2.6971 N.2       1 <0>        -0.2723
     16 C9          5.7468   -6.6496    3.2188 C.2       1 <0>         0.1226
     17 C10         6.8000   -7.6716    3.1094 C.ar      1 <0>        -0.0342
     18 C11         7.9409   -7.4264    2.3435 C.ar      1 <0>        -0.0963
     19 C12         8.9246   -8.3880    2.2445 C.ar      1 <0>        -0.1352
     20 C13         8.7910   -9.6018    2.9008 C.ar      1 <0>        -0.1206
     21 C14         7.6725   -9.8661    3.6625 C.ar      1 <0>        -0.0928
     22 C15         6.6666   -8.9047    3.7826 C.ar      1 <0>        -0.1045
     23 C16         5.4735   -9.1779    4.5999 C.2       1 <0>         0.5251
     24 O4          5.4118  -10.1999    5.2698 O.co2     1 <0>        -0.6743
     25 O5          4.5434   -8.3832    4.6095 O.co2     1 <0>        -0.6814
     26 C17         5.2529   -0.0839    2.3984 C.ar      1 <0>         0.3805
     27 C18         5.6152   -0.3385    3.7175 C.ar      1 <0>        -0.1946
     28 C19         6.3913    0.5862    4.3922 C.ar      1 <0>        -0.0421
     29 C20         6.7807    1.7391    3.7228 C.ar      1 <0>        -0.2053
     30 C21         6.3850    1.9272    2.4139 C.ar      1 <0>         0.1405
     31 N4          5.6487    1.0250    1.7931 N.ar      1 <0>        -0.4998
     32 H1         -0.8190    2.0776    0.2400 H         1 <0>         0.1308
     33 H2          1.3104    3.3136    0.2686 H         1 <0>         0.1329
     34 H3          3.4458    2.0883    0.2249 H         1 <0>         0.1461
     35 H4          1.3222   -1.6088    0.1166 H         1 <0>         0.1404
     36 H5         -0.8132   -0.3834    0.1589 H         1 <0>         0.1343
     37 H6          3.8330   -2.0278    3.4237 H         1 <0>         0.1271
     38 H7          3.1213   -2.5975    1.8950 H         1 <0>         0.1291
     39 H8          4.0955   -4.7051    3.2630 H         1 <0>         0.3834
     40 H9          4.8247   -6.8772    3.7329 H         1 <0>         0.1834
     41 H10         8.0531   -6.4840    1.8282 H         1 <0>         0.1278
     42 H11         9.8057   -8.1940    1.6509 H         1 <0>         0.1168
     43 H12         9.5687  -10.3461    2.8146 H         1 <0>         0.1171
     44 H13         7.5765  -10.8145    4.1701 H         1 <0>         0.1309
     45 H14         5.2945   -1.2457    4.2079 H         1 <0>         0.1348
     46 H15         6.6876    0.4158    5.4166 H         1 <0>         0.1386
     47 H16         7.3867    2.4811    4.2215 H         1 <0>         0.1369
     48 H17         6.6853    2.8225    1.8898 H         1 <0>         0.1631
@<TRIPOS>BOND
     1    1    6 ar
     2    1    2 ar
     3    1   32 1
     4    2    3 ar
     5    2   33 1
     6    3    4 ar
     7    3   34 1
     8    4    5 ar
     9    4    7 1
    10    5    6 ar
    11    5   35 1
    12    6   36 1
    13    7    8 2
    14    7    9 2
    15    7   10 1
    16   10   11 1
    17   10   26 1
    18   11   12 1
    19   11   37 1
    20   11   38 1
    21   12   13 2
    22   12   14 am
    23   14   15 1
    24   14   39 1
    25   15   16 2
    26   16   17 1
    27   16   40 1
    28   17   22 ar
    29   17   18 ar
    30   18   19 ar
    31   18   41 1
    32   19   20 ar
    33   19   42 1
    34   20   21 ar
    35   20   43 1
    36   21   22 ar
    37   21   44 1
    38   22   23 1
    39   23   24 2
    40   23   25 1
    41   26   31 ar
    42   26   27 ar
    43   27   28 ar
    44   27   45 1
    45   28   29 ar
    46   28   46 1
    47   29   30 ar
    48   29   47 1
    49   30   31 ar
    50   30   48 1
@<TRIPOS>MOLECULE
ZINC65614580
   54    56     0     0     0
SMALL
USER_CHARGES

@<TRIPOS>ATOM
      1 C1          0.0084    1.5320    0.0245 C.3       1 <0>        -0.1521
      2 C2          0.0296    0.0021    0.0188 C.3       1 <0>         0.0599
      3 O1          0.6901   -0.4607   -1.1609 O.3       1 <0>        -0.3376
      4 C3          0.7944   -1.7965   -1.3205 C.2       1 <0>         0.5558
      5 O2          0.3365   -2.5471   -0.4798 O.2       1 <0>        -0.4941
      6 C4          1.4379   -2.3253   -2.4683 C.2       1 <0>         0.0032
      7 N1          1.9649   -1.6234   -3.4207 N.2       1 <0>        -0.1158
      8 N2          2.5364   -2.3865   -4.4369 N.pl3     1 <0>        -0.4264
      9 C5          2.3663   -3.8123   -4.1162 C.3       1 <0>         0.0914
     10 H1          1.7700   -4.3088   -4.8817 H         1 <0>         0.1197
     11 C6          1.6212   -3.7961   -2.7670 C.3       1 <0>        -0.0904
     12 C7          3.7064   -4.4862   -3.9709 C.2       1 <0>         0.4892
     13 O3          4.7027   -3.8205   -3.7822 O.2       1 <0>        -0.4990
     14 N3          3.7979   -5.8285   -4.0505 N.am      1 <0>        -0.6485
     15 C8          5.0541   -6.4487   -4.0125 C.ar      1 <0>         0.0105
     16 C9          5.2884   -7.5890   -4.7693 C.ar      1 <0>        -0.0902
     17 C10         6.5260   -8.1999   -4.7323 C.ar      1 <0>        -0.1737
     18 C11         7.5366   -7.6738   -3.9381 C.ar      1 <0>         0.2810
     19 C12         7.3020   -6.5332   -3.1811 C.ar      1 <0>        -0.2451
     20 C13         6.0659   -5.9195   -3.2225 C.ar      1 <0>        -0.0534
     21 N4          8.7905   -8.2929   -3.9001 N.2       1 <0>        -1.1001
     22 S1          9.9953   -7.6655   -2.9531 S.o2      1 <0>         2.5264
     23 O4         10.2639   -6.3855   -3.5087 O.2       1 <0>        -1.0272
     24 O5          9.5130   -7.7908   -1.6223 O.2       1 <0>        -1.0287
     25 C14        11.4125   -8.7682   -3.2104 C.3       1 <0>        -0.6034
     26 C15        12.5973   -8.2795   -2.3747 C.3       1 <0>        -0.1427
     27 C16         3.1678   -1.8804   -5.5744 C.ar      1 <0>         0.2183
     28 C17         3.6950   -2.7486   -6.5228 C.ar      1 <0>        -0.1512
     29 C18         4.3189   -2.2444   -7.6468 C.ar      1 <0>        -0.0793
     30 C19         4.4198   -0.8772   -7.8290 C.ar      1 <0>        -0.1520
     31 C20         3.8963   -0.0102   -6.8873 C.ar      1 <0>        -0.0876
     32 C21         3.2656   -0.5072   -5.7639 C.ar      1 <0>        -0.1502
     33 H2          1.0308    1.9096    0.0086 H         1 <0>         0.0682
     34 H3         -0.5254    1.8912   -0.8554 H         1 <0>         0.0672
     35 H4         -0.4954    1.8850    0.9243 H         1 <0>         0.0799
     36 H5          0.5634   -0.3571    0.8986 H         1 <0>         0.0708
     37 H6         -0.9927   -0.3755    0.0347 H         1 <0>         0.0701
     38 H7          2.2209   -4.2719   -1.9911 H         1 <0>         0.1124
     39 H8          0.6542   -4.2904   -2.8609 H         1 <0>         0.1190
     40 H9          2.9943   -6.3652   -4.1342 H         1 <0>         0.4006
     41 H10         4.5024   -7.9983   -5.3866 H         1 <0>         0.1074
     42 H11         6.7081   -9.0871   -5.3207 H         1 <0>         0.1157
     43 H12         8.0877   -6.1239   -2.5635 H         1 <0>         0.1034
     44 H13         5.8848   -5.0300   -2.6374 H         1 <0>         0.1164
     45 H14        11.1456   -9.7801   -2.9055 H         1 <0>         0.1187
     46 H15        11.6869   -8.7671   -4.2653 H         1 <0>         0.1188
     47 H16        12.8642   -7.2677   -2.6796 H         1 <0>         0.0644
     48 H17        12.3229   -8.2806   -1.3198 H         1 <0>         0.0643
     49 H18        13.4489   -8.9421   -2.5293 H         1 <0>         0.0678
     50 H19         3.6171   -3.8164   -6.3808 H         1 <0>         0.1200
     51 H20         4.7288   -2.9186   -8.3843 H         1 <0>         0.1282
     52 H21         4.9090   -0.4857   -8.7087 H         1 <0>         0.1228
     53 H22         3.9773    1.0569   -7.0327 H         1 <0>         0.1258
     54 H23         2.8531    0.1705   -5.0311 H         1 <0>         0.1315
@<TRIPOS>BOND
     1    1    2 1
     2    1   33 1
     3    1   34 1
     4    1   35 1
     5    2    3 1
     6    2   36 1
     7    2   37 1
     8    3    4 1
     9    4    5 2
    10    4    6 1
    11    6   11 1
    12    6    7 2
    13    7    8 1
    14    8    9 1
    15    8   27 1
    16    9   10 1
    17    9   11 1
    18    9   12 1
    19   11   38 1
    20   11   39 1
    21   12   13 2
    22   12   14 am
    23   14   15 1
    24   14   40 1
    25   15   20 ar
    26   15   16 ar
    27   16   17 ar
    28   16   41 1
    29   17   18 ar
    30   17   42 1
    31   18   19 ar
    32   18   21 1
    33   19   20 ar
    34   19   43 1
    35   20   44 1
    36   21   22 1
    37   22   23 2
    38   22   24 2
    39   22   25 1
    40   25   26 1
    41   25   45 1
    42   25   46 1
    43   26   47 1
    44   26   48 1
    45   26   49 1
    46   27   32 ar
    47   27   28 ar
    48   28   29 ar
    49   28   50 1
    50   29   30 ar
    51   29   51 1
    52   30   31 ar
    53   30   52 1
    54   31   32 ar
    55   31   53 1
    56   32   54 1
@<TRIPOS>MOLECULE
ZINC22760160
   46    48     0     0     0
SMALL
USER_CHARGES
2-amino-3-(4-tert-butylbenzoyl)indolizine-1-carboxamide
@<TRIPOS>ATOM
      1 C1         -0.6158   12.4637   -0.7737 C.3       1 <0>        -0.1416
      2 C2         -0.9593   11.7135    0.5148 C.3       1 <0>        -0.0349
      3 C3         -2.4692   11.7756    0.7539 C.3       1 <0>        -0.1486
      4 C4         -0.2293   12.3622    1.6926 C.3       1 <0>        -0.1414
      5 C5         -0.5295   10.2747    0.3882 C.ar      1 <0>        -0.0326
      6 C6          0.8020    9.9705    0.1670 C.ar      1 <0>        -0.1305
      7 C7          1.2020    8.6552    0.0507 C.ar      1 <0>        -0.0580
      8 C8          0.2605    7.6308    0.1565 C.ar      1 <0>        -0.1763
      9 C9         -1.0817    7.9446    0.3739 C.ar      1 <0>        -0.0547
     10 C10        -1.4680    9.2636    0.4941 C.ar      1 <0>        -0.1357
     11 C11         0.6827    6.2177    0.0327 C.2       1 <0>         0.4875
     12 O1          1.8663    5.9412   -0.0629 O.2       1 <0>        -0.4369
     13 C12        -0.2828    5.1922    0.0255 C.2       1 <0>        -0.2183
     14 C13        -0.8523    4.6188   -1.1097 C.2       1 <0>         0.2966
     15 C14        -1.7639    3.6390   -0.6702 C.2       1 <0>        -0.3065
     16 C15        -1.7262    3.6402    0.7437 C.2       1 <0>         0.1423
     17 N1         -0.8271    4.5836    1.1476 N.pl3     1 <0>        -0.2897
     18 C16        -0.5999    4.7885    2.4748 C.2       1 <0>         0.0604
     19 C17        -1.2578    4.0651    3.4102 C.2       1 <0>        -0.1473
     20 C18        -2.1852    3.0905    3.0227 C.2       1 <0>        -0.0936
     21 C19        -2.4145    2.8745    1.6935 C.2       1 <0>        -0.1086
     22 C20        -2.5935    2.7820   -1.5167 C.2       1 <0>         0.6066
     23 O2         -3.7060    3.1484   -1.8492 O.2       1 <0>        -0.5490
     24 N2         -2.1266    1.5867   -1.9286 N.am      1 <0>        -0.8711
     25 N3         -0.5740    4.9508   -2.4255 N.pl3     1 <0>        -0.8697
     26 H1          0.4698   12.4191   -0.9457 H         1 <0>         0.0589
     27 H2         -0.9296   13.5139   -0.6812 H         1 <0>         0.0624
     28 H3         -1.1407   11.9974   -1.6205 H         1 <0>         0.0581
     29 H4         -2.7162   11.2363    1.6802 H         1 <0>         0.0603
     30 H5         -2.9940   11.3093   -0.0930 H         1 <0>         0.0608
     31 H6         -2.7829   12.8259    0.8463 H         1 <0>         0.0619
     32 H7         -0.4762   11.8229    2.6190 H         1 <0>         0.0578
     33 H8         -0.5431   13.4124    1.7850 H         1 <0>         0.0624
     34 H9          0.8563   12.3176    1.5206 H         1 <0>         0.0589
     35 H10         1.5298   10.7642    0.0856 H         1 <0>         0.1284
     36 H11         2.2417    8.4190   -0.1216 H         1 <0>         0.1328
     37 H12        -1.8159    7.1564    0.4523 H         1 <0>         0.1268
     38 H13        -2.5057    9.5075    0.6671 H         1 <0>         0.1330
     39 H14         0.1138    5.5377    2.7845 H         1 <0>         0.1604
     40 H15        -1.0667    4.2398    4.4587 H         1 <0>         0.1522
     41 H16        -2.7111    2.5118    3.7676 H         1 <0>         0.1414
     42 H17        -3.1231    2.1230    1.3779 H         1 <0>         0.1445
     43 H18        -2.7506    0.9422   -2.5652 H         1 <0>         0.4198
     44 H19        -1.1216    1.2556   -1.6282 H         1 <0>         0.4213
     45 H20        -1.0880    4.4276   -3.2453 H         1 <0>         0.4275
     46 H21         0.1610    5.7376   -2.6506 H         1 <0>         0.4218
@<TRIPOS>BOND
     1    1    2 1
     2    1   26 1
     3    1   27 1
     4    1   28 1
     5    2    3 1
     6    2    4 1
     7    2    5 1
     8    3   29 1
     9    3   30 1
    10    3   31 1
    11    4   32 1
    12    4   33 1
    13    4   34 1
    14    5   10 ar
    15    5    6 ar
    16    6    7 ar
    17    6   35 1
    18    7    8 ar
    19    7   36 1
    20    8    9 ar
    21    8   11 1
    22    9   10 ar
    23    9   37 1
    24   10   38 1
    25   11   12 2
    26   11   13 1
    27   13   17 1
    28   13   14 2
    29   14   15 1
    30   14   25 1
    31   15   16 2
    32   15   22 1
    33   16   21 1
    34   16   17 1
    35   17   18 1
    36   18   19 2
    37   18   39 1
    38   19   20 1
    39   19   40 1
    40   20   21 2
    41   20   41 1
    42   21   42 1
    43   22   23 2
    44   22   24 am
    45   24   43 1
    46   24   44 1
    47   25   45 1
    48   25   46 1
@<TRIPOS>MOLECULE
ZINC39021053
   44    47     0     0     0
SMALL
USER_CHARGES

@<TRIPOS>ATOM
      1 C1         -0.0184    1.5028    0.0103 C.3       1 <0>        -0.0895
      2 C2          0.0021   -0.0041    0.0020 C.2       1 <0>        -0.0375
      3 C3         -1.0863   -0.7768    0.0030 C.2       1 <0>        -0.1528
      4 C4         -0.5311   -2.1901   -0.0073 C.3       1 <0>        -0.0230
      5 H1         -0.8370   -2.7309    0.8883 H         1 <0>         0.1513
      6 N1          0.9257   -1.9734   -0.0130 N.2       1 <0>        -0.1150
      7 N2          1.1248   -0.7562   -0.0132 N.2       1 <0>        -0.1684
      8 C5         -0.9759   -2.9370   -1.2664 C.3       1 <0>         0.2356
      9 H2         -0.5599   -2.4687   -2.1585 H         1 <0>         0.0889
     10 N3         -2.4589   -2.9973   -1.3464 N.3       1 <0>        -0.4833
     11 N4         -2.7336   -4.1667   -2.1857 N.3       1 <0>        -0.4991
     12 C6         -1.5529   -5.0489   -2.0911 C.3       1 <0>         0.1676
     13 H3         -1.1093   -5.1863   -3.0772 H         1 <0>         0.0941
     14 N5         -0.5865   -4.3702   -1.1937 N.3       1 <0>        -0.3374
     15 N6          0.7800   -4.5628   -1.6517 N.3       1 <0>        -0.6398
     16 S1         -2.0309   -6.6547   -1.3958 S.3       1 <0>        -0.1558
     17 C7         -2.7411   -6.2391    0.2208 C.3       1 <0>        -0.0407
     18 C8         -3.1849   -7.5014    0.9141 C.ar      1 <0>        -0.0675
     19 C9         -4.4480   -7.9747    0.7308 C.ar      1 <0>        -0.0925
     20 C10        -4.8763   -9.1400    1.3633 C.ar      1 <0>        -0.1178
     21 C11        -4.0441   -9.8388    2.1833 C.ar      1 <0>        -0.0979
     22 C12        -2.7330   -9.3811    2.3968 C.ar      1 <0>        -0.0535
     23 C13        -2.2954   -8.1990    1.7484 C.ar      1 <0>        -0.0365
     24 C14        -0.9819   -7.7445    1.9575 C.ar      1 <0>        -0.1042
     25 C15        -0.1483   -8.4464    2.7725 C.ar      1 <0>        -0.1120
     26 C16        -0.5766   -9.6123    3.4049 C.ar      1 <0>        -0.1153
     27 C17        -1.8453  -10.0752    3.2367 C.ar      1 <0>        -0.1065
     28 H4          1.0042    1.8801    0.0026 H         1 <0>         0.0795
     29 H5         -0.5455    1.8639   -0.8728 H         1 <0>         0.0784
     30 H6         -0.5286    1.8543    0.9071 H         1 <0>         0.0790
     31 H7         -2.1213   -0.4684    0.0099 H         1 <0>         0.1745
     32 H8         -2.8663   -3.1064   -0.4298 H         1 <0>         0.3644
     33 H9         -2.9050   -3.8933   -3.1418 H         1 <0>         0.3673
     34 H10         1.0442   -5.5353   -1.6023 H         1 <0>         0.3677
     35 H11         0.9025   -4.2018   -2.5858 H         1 <0>         0.3213
     36 H12        -1.9898   -5.7354    0.8291 H         1 <0>         0.0957
     37 H13        -3.5982   -5.5799    0.0825 H         1 <0>         0.0950
     38 H14        -5.1285   -7.4388    0.0858 H         1 <0>         0.1260
     39 H15        -5.8836   -9.4940    1.2009 H         1 <0>         0.1263
     40 H16        -4.3900  -10.7400    2.6675 H         1 <0>         0.1285
     41 H17        -0.6360   -6.8431    1.4735 H         1 <0>         0.1298
     42 H18         0.8605   -8.0949    2.9314 H         1 <0>         0.1240
     43 H19         0.1053  -10.1506    4.0465 H         1 <0>         0.1236
     44 H20        -2.1635  -10.9797    3.7338 H         1 <0>         0.1275
@<TRIPOS>BOND
     1    1    2 1
     2    1   28 1
     3    1   29 1
     4    1   30 1
     5    2    7 1
     6    2    3 2
     7    3    4 1
     8    3   31 1
     9    4    5 1
    10    4    6 1
    11    4    8 1
    12    6    7 2
    13    8    9 1
    14    8   14 1
    15    8   10 1
    16   10   11 1
    17   10   32 1
    18   11   12 1
    19   11   33 1
    20   12   13 1
    21   12   14 1
    22   12   16 1
    23   14   15 1
    24   15   34 1
    25   15   35 1
    26   16   17 1
    27   17   18 1
    28   17   36 1
    29   17   37 1
    30   18   23 ar
    31   18   19 ar
    32   19   20 ar
    33   19   38 1
    34   20   21 ar
    35   20   39 1
    36   21   22 ar
    37   21   40 1
    38   22   27 ar
    39   22   23 ar
    40   23   24 ar
    41   24   25 ar
    42   24   41 1
    43   25   26 ar
    44   25   42 1
    45   26   27 ar
    46   26   43 1
    47   27   44 1
@<TRIPOS>MOLECULE
ZINC40781158
   43    45     0     0     0
SMALL
USER_CHARGES

@<TRIPOS>ATOM
      1 C1         -1.1521    1.2049    0.1707 C.3       1 <0>        -0.1143
      2 C2         -0.4847   -0.1433    0.0813 C.ar      1 <0>        -0.1213
      3 C3         -0.4591   -0.8237   -1.1204 C.ar      1 <0>        -0.1031
      4 C4          0.1527   -2.0609   -1.2033 C.ar      1 <0>        -0.1361
      5 C5          0.7413   -2.6212   -0.0841 C.ar      1 <0>        -0.1072
      6 C6          0.7197   -1.9462    1.1203 C.ar      1 <0>        -0.1125
      7 C7          0.1105   -0.7004    1.2058 C.ar      1 <0>         0.1602
      8 N1          0.0918   -0.0119    2.4218 N.pl3     1 <0>        -0.6528
      9 C8         -0.0159   -0.7144    3.6169 C.ar      1 <0>         0.3938
     10 C9         -0.1336   -0.0345    4.8308 C.ar      1 <0>         0.0142
     11 C10        -0.2393   -0.7886    6.0010 C.ar      1 <0>         0.3934
     12 N2         -0.2238   -2.1170    5.9156 N.ar      1 <0>        -0.5564
     13 C11        -0.1109   -2.7193    4.7493 C.ar      1 <0>         0.3202
     14 N3         -0.0140   -2.0453    3.6210 N.ar      1 <0>        -0.5551
     15 N4         -0.3582   -0.1620    7.2362 N.pl3     1 <0>        -0.6430
     16 C12        -0.3340   -0.9219    8.4117 C.ar      1 <0>         0.1413
     17 C13         0.2923   -2.1599    8.4271 C.ar      1 <0>        -0.0946
     18 C14         0.3148   -2.9081    9.5889 C.ar      1 <0>        -0.1313
     19 C15        -0.2861   -2.4263   10.7373 C.ar      1 <0>        -0.1061
     20 C16        -0.9125   -1.1937   10.7294 C.ar      1 <0>        -0.1859
     21 C17        -0.9338   -0.4345    9.5710 C.ar      1 <0>         0.0852
     22 O1         -1.5443    0.7807    9.5635 O.3       1 <0>        -0.3248
     23 C18        -2.1379    1.2161   10.7883 C.3       1 <0>         0.0303
     24 N5         -0.1451    1.3686    4.8734 N.pl3     1 <0>        -0.8747
     25 H1         -0.4250    1.9858   -0.0518 H         1 <0>         0.0684
     26 H2         -1.9697    1.2540   -0.5486 H         1 <0>         0.0706
     27 H3         -1.5445    1.3500    1.1772 H         1 <0>         0.0601
     28 H4         -0.9177   -0.3890   -1.9963 H         1 <0>         0.1226
     29 H5          0.1706   -2.5912   -2.1440 H         1 <0>         0.1207
     30 H6          1.2180   -3.5879   -0.1521 H         1 <0>         0.1233
     31 H7          1.1795   -2.3843    1.9938 H         1 <0>         0.1450
     32 H8          0.1541    0.9560    2.4321 H         1 <0>         0.4121
     33 H9         -0.1018   -3.7988    4.7165 H         1 <0>         0.1995
     34 H10        -0.4580    0.8017    7.2835 H         1 <0>         0.4167
     35 H11         0.7618   -2.5388    7.5314 H         1 <0>         0.1578
     36 H12         0.8026   -3.8716    9.5997 H         1 <0>         0.1266
     37 H13        -0.2663   -3.0146   11.6427 H         1 <0>         0.1240
     38 H14        -1.3812   -0.8206   11.6281 H         1 <0>         0.1293
     39 H15        -2.9054    0.5046   11.0932 H         1 <0>         0.0559
     40 H16        -1.3721    1.2779   11.5614 H         1 <0>         0.0558
     41 H17        -2.5891    2.1979   10.6446 H         1 <0>         0.0994
     42 H18        -0.0705    1.8794    4.0522 H         1 <0>         0.3956
     43 H19        -0.2275    1.8273    5.7241 H         1 <0>         0.3973
@<TRIPOS>BOND
     1    1    2 1
     2    1   25 1
     3    1   26 1
     4    1   27 1
     5    2    7 ar
     6    2    3 ar
     7    3    4 ar
     8    3   28 1
     9    4    5 ar
    10    4   29 1
    11    5    6 ar
    12    5   30 1
    13    6    7 ar
    14    6   31 1
    15    7    8 1
    16    8    9 1
    17    8   32 1
    18    9   14 ar
    19    9   10 ar
    20   10   11 ar
    21   10   24 1
    22   11   12 ar
    23   11   15 1
    24   12   13 ar
    25   13   14 ar
    26   13   33 1
    27   15   16 1
    28   15   34 1
    29   16   21 ar
    30   16   17 ar
    31   17   18 ar
    32   17   35 1
    33   18   19 ar
    34   18   36 1
    35   19   20 ar
    36   19   37 1
    37   20   21 ar
    38   20   38 1
    39   21   22 1
    40   22   23 1
    41   23   39 1
    42   23   40 1
    43   23   41 1
    44   24   42 1
    45   24   43 1
@<TRIPOS>MOLECULE
ZINC50035144
   29    30     0     0     0
SMALL
USER_CHARGES

@<TRIPOS>ATOM
      1 C1          5.3724    2.3153    3.5931 C.ar      1 <0>        -0.0579
      2 C2          4.6928    2.7079    2.4554 C.ar      1 <0>        -0.1631
      3 C3          4.0454    1.7628    1.6744 C.ar      1 <0>         0.1005
      4 C4          4.0814    0.4219    2.0378 C.ar      1 <0>         0.0867
      5 C5          4.7627    0.0342    3.1769 C.ar      1 <0>        -0.0893
      6 C6          5.4077    0.9806    3.9538 C.ar      1 <0>        -0.0987
      7 Br1         6.3387    0.4479    5.5111 Br        1 <0>        -0.0300
      8 F1          3.4513   -0.5016    1.2793 F         1 <0>        -0.1217
      9 O1          3.3761    2.1472    0.5554 O.3       1 <0>        -0.2278
     10 C7          3.2915    3.4782    0.2874 C.ar      1 <0>        -0.0319
     11 C8          2.1305    4.1664    0.5794 C.ar      1 <0>        -0.0018
     12 C9          2.0436    5.5346    0.3044 C.ar      1 <0>        -0.2289
     13 C10         3.1397    6.1996   -0.2676 C.ar      1 <0>         0.3154
     14 C11         4.3001    5.4946   -0.5556 C.ar      1 <0>        -0.2339
     15 C12         4.3781    4.1435   -0.2751 C.ar      1 <0>         0.1730
     16 F2          5.5121    3.4637   -0.5529 F         1 <0>        -0.1175
     17 N1          3.0629    7.5602   -0.5453 N.pl3     1 <0>        -0.8405
     18 C13         0.8078    6.2746    0.6129 C.2       1 <0>         0.5800
     19 O2          0.7757    7.4839    0.4877 O.2       1 <0>        -0.5471
     20 N2         -0.2874    5.6115    1.0340 N.am      1 <0>        -0.8468
     21 H1          5.8803    3.0512    4.1988 H         1 <0>         0.1455
     22 H2          4.6658    3.7505    2.1751 H         1 <0>         0.1440
     23 H3          4.7915   -1.0075    3.4605 H         1 <0>         0.1559
     24 H4          1.2908    3.6487    1.0190 H         1 <0>         0.1473
     25 H5          5.1448    6.0035   -0.9959 H         1 <0>         0.1529
     26 H6          2.1981    7.9968   -0.5961 H         1 <0>         0.4213
     27 H7          3.8740    8.0726   -0.6881 H         1 <0>         0.4024
     28 H8         -0.2619    4.6470    1.1339 H         1 <0>         0.4028
     29 H9         -1.1012    6.0987    1.2372 H         1 <0>         0.4093
@<TRIPOS>BOND
     1    1    6 ar
     2    1    2 ar
     3    1   21 1
     4    2    3 ar
     5    2   22 1
     6    3    4 ar
     7    3    9 1
     8    4    5 ar
     9    4    8 1
    10    5    6 ar
    11    5   23 1
    12    6    7 1
    13    9   10 1
    14   10   15 ar
    15   10   11 ar
    16   11   12 ar
    17   11   24 1
    18   12   13 ar
    19   12   18 1
    20   13   14 ar
    21   13   17 1
    22   14   15 ar
    23   14   25 1
    24   15   16 1
    25   17   26 1
    26   17   27 1
    27   18   19 2
    28   18   20 am
    29   20   28 1
    30   20   29 1
@<TRIPOS>MOLECULE
ZINC67413706
   45    46     0     0     0
SMALL
USER_CHARGES

@<TRIPOS>ATOM
      1 C1         -0.0167    1.3782    0.0096 C.ar      1 <0>        -0.1294
      2 C2          1.1700    2.0882    0.0021 C.ar      1 <0>        -0.0923
      3 C3          2.3773    1.4175   -0.0134 C.ar      1 <0>        -0.1475
      4 C4          2.3989    0.0301   -0.0210 C.ar      1 <0>         0.1232
      5 C5          1.2072   -0.6797   -0.0130 C.ar      1 <0>        -0.1407
      6 C6          0.0021   -0.0041    0.0020 C.ar      1 <0>        -0.0828
      7 C7          1.2269   -2.1866   -0.0218 C.3       1 <0>         0.1824
      8 N1          1.4868   -2.6794    1.3332 N.am      1 <0>        -0.7395
      9 C8          1.5494   -4.0051    1.5676 C.2       1 <0>         0.7133
     10 O1          1.3901   -4.7921    0.6545 O.2       1 <0>        -0.5661
     11 N2          1.7885   -4.4585    2.8140 N.am      1 <0>        -0.5329
     12 N3          1.9721   -3.5517    3.8661 N.am      1 <0>        -0.5346
     13 C9          2.2112   -4.0051    5.1126 C.2       1 <0>         0.5147
     14 O2          2.2675   -5.1981    5.3235 O.2       1 <0>        -0.5218
     15 C10         2.4087   -3.0297    6.2442 C.3       1 <0>        -0.1283
     16 C11         2.6620   -3.7990    7.5423 C.3       1 <0>        -0.0712
     17 C12         1.4123   -4.6005    7.9122 C.3       1 <0>        -0.1214
     18 C13         1.6656   -5.3698    9.2103 C.3       1 <0>        -0.1184
     19 C14         1.9892   -4.3825   10.3334 C.3       1 <0>        -0.1217
     20 C15         3.2388   -3.5809    9.9634 C.3       1 <0>        -0.1196
     21 C16         2.9856   -2.8117    8.6654 C.3       1 <0>        -0.1146
     22 O3          3.5855   -0.6321   -0.0368 O.3       1 <0>        -0.4915
     23 H1         -0.9596    1.9045    0.0259 H         1 <0>         0.1293
     24 H2          1.1527    3.1681    0.0080 H         1 <0>         0.1300
     25 H3          3.3038    1.9724   -0.0200 H         1 <0>         0.1319
     26 H4         -0.9260   -0.5563    0.0079 H         1 <0>         0.1306
     27 H5          0.2625   -2.5605   -0.3656 H         1 <0>         0.0798
     28 H6          2.0121   -2.5358   -0.6923 H         1 <0>         0.0865
     29 H7          1.6139   -2.0515    2.0615 H         1 <0>         0.3892
     30 H8          1.8335   -5.4127    2.9828 H         1 <0>         0.4442
     31 H9          1.9271   -2.5976    3.6974 H         1 <0>         0.4173
     32 H10         3.2647   -2.3905    6.0278 H         1 <0>         0.1005
     33 H11         1.5151   -2.4153    6.3544 H         1 <0>         0.1002
     34 H12         3.5021   -4.4794    7.4034 H         1 <0>         0.0811
     35 H13         0.5722   -3.9201    8.0511 H         1 <0>         0.0560
     36 H14         1.1818   -5.3039    7.1121 H         1 <0>         0.0799
     37 H15         0.7753   -5.9408    9.4738 H         1 <0>         0.0603
     38 H16         2.5057   -6.0502    9.0714 H         1 <0>         0.0621
     39 H17         1.1490   -3.7020   10.4723 H         1 <0>         0.0604
     40 H18         2.1696   -4.9305   11.2581 H         1 <0>         0.0603
     41 H19         3.4694   -2.8776   10.7636 H         1 <0>         0.0624
     42 H20         4.0790   -4.2614    9.8245 H         1 <0>         0.0624
     43 H21         3.8758   -2.2406    8.4018 H         1 <0>         0.0630
     44 H22         2.1454   -2.1312    8.8043 H         1 <0>         0.0637
     45 H23         3.9380   -0.8285    0.8420 H         1 <0>         0.3893
@<TRIPOS>BOND
     1    1    6 ar
     2    1    2 ar
     3    1   23 1
     4    2    3 ar
     5    2   24 1
     6    3    4 ar
     7    3   25 1
     8    4    5 ar
     9    4   22 1
    10    5    6 ar
    11    5    7 1
    12    6   26 1
    13    7    8 1
    14    7   27 1
    15    7   28 1
    16    8    9 am
    17    8   29 1
    18    9   10 2
    19    9   11 am
    20   11   12 1
    21   11   30 1
    22   12   13 am
    23   12   31 1
    24   13   14 2
    25   13   15 1
    26   15   16 1
    27   15   32 1
    28   15   33 1
    29   16   21 1
    30   16   17 1
    31   16   34 1
    32   17   18 1
    33   17   35 1
    34   17   36 1
    35   18   19 1
    36   18   37 1
    37   18   38 1
    38   19   20 1
    39   19   39 1
    40   19   40 1
    41   20   21 1
    42   20   41 1
    43   20   42 1
    44   21   43 1
    45   21   44 1
    46   22   45 1
@<TRIPOS>MOLECULE
ZINC35345193
   36    37     0     0     0
SMALL
USER_CHARGES

@<TRIPOS>ATOM
      1 C1         -1.3435    1.7957   -0.8834 C.3       1 <0>        -0.1494
      2 C2         -0.5156    0.5581   -0.5319 C.3       1 <0>        -0.1359
      3 C3         -1.4323   -0.5211    0.0475 C.3       1 <0>         0.1480
      4 C4         -0.6279   -1.8011    0.2829 C.3       1 <0>        -0.1368
      5 C5         -1.5694   -2.9195    0.7343 C.3       1 <0>        -0.1498
      6 N1         -1.9921   -0.0554    1.3188 N.pl3     1 <0>        -0.7379
      7 C6         -3.3793   -0.0333    1.5066 C.ar      1 <0>         0.1903
      8 C7         -4.2238   -0.3318    0.4510 C.ar      1 <0>        -0.1764
      9 C8         -5.6050   -0.3110    0.6318 C.ar      1 <0>         0.1321
     10 C9         -6.1184    0.0118    1.8816 C.ar      1 <0>        -0.1493
     11 C10        -5.2826    0.3093    2.9361 C.ar      1 <0>        -0.1047
     12 C11        -3.9067    0.2837    2.7581 C.ar      1 <0>         0.1347
     13 N2         -3.0515    0.5800    3.8292 N.pl3     1 <0>        -0.8826
     14 C12        -7.6232   -0.0522    1.7530 C.3       1 <0>        -0.1089
     15 C13        -7.8539   -0.4417    0.3085 C.2       1 <0>         0.5271
     16 O1         -8.9281   -0.6057   -0.2305 O.2       1 <0>        -0.5117
     17 N3         -6.6456   -0.5704   -0.2647 N.am      1 <0>        -0.6581
     18 H1         -0.6904    2.5646   -1.2962 H         1 <0>         0.0525
     19 H2         -2.1012    1.5287   -1.6201 H         1 <0>         0.0522
     20 H3         -1.8288    2.1756    0.0156 H         1 <0>         0.0573
     21 H4         -0.0303    0.1782   -1.4309 H         1 <0>         0.0722
     22 H5          0.2421    0.8251    0.2048 H         1 <0>         0.0636
     23 H6         -2.2421   -0.7246   -0.6532 H         1 <0>         0.0905
     24 H7         -0.1328   -2.0945   -0.6427 H         1 <0>         0.0708
     25 H8          0.1208   -1.6229    1.0548 H         1 <0>         0.0630
     26 H9         -0.9870   -3.8067    0.9825 H         1 <0>         0.0518
     27 H10        -2.1265   -2.5931    1.6125 H         1 <0>         0.0582
     28 H11        -2.2656   -3.1553   -0.0706 H         1 <0>         0.0516
     29 H12        -1.4016    0.2376    2.0303 H         1 <0>         0.3941
     30 H13        -3.8108   -0.5811   -0.5153 H         1 <0>         0.1267
     31 H14        -5.6981    0.5586    3.9014 H         1 <0>         0.1270
     32 H15        -2.0902    0.5648    3.7008 H         1 <0>         0.3911
     33 H16        -3.4213    0.8001    4.6985 H         1 <0>         0.3995
     34 H17        -8.0317   -0.8093    2.4224 H         1 <0>         0.1185
     35 H18        -8.0660    0.9218    1.9612 H         1 <0>         0.1186
     36 H19        -6.5109   -0.8155   -1.1935 H         1 <0>         0.4099
@<TRIPOS>BOND
     1    1    2 1
     2    1   18 1
     3    1   19 1
     4    1   20 1
     5    2    3 1
     6    2   21 1
     7    2   22 1
     8    3    4 1
     9    3    6 1
    10    3   23 1
    11    4    5 1
    12    4   24 1
    13    4   25 1
    14    5   26 1
    15    5   27 1
    16    5   28 1
    17    6    7 1
    18    6   29 1
    19    7   12 ar
    20    7    8 ar
    21    8    9 ar
    22    8   30 1
    23    9   17 1
    24    9   10 ar
    25   10   11 ar
    26   10   14 1
    27   11   12 ar
    28   11   31 1
    29   12   13 1
    30   13   32 1
    31   13   33 1
    32   14   15 1
    33   14   34 1
    34   14   35 1
    35   15   16 2
    36   15   17 am
    37   17   36 1
@<TRIPOS>MOLECULE
ZINC40308490
   41    42     0     0     0
SMALL
USER_CHARGES

@<TRIPOS>ATOM
      1 C1         -0.0187    1.5258    0.0104 C.3       1 <0>        -0.1554
      2 C2          0.0021   -0.0041    0.0020 C.3       1 <0>        -0.1206
      3 C3          0.7182   -0.4975   -1.2568 C.3       1 <0>        -0.0889
      4 C4         -0.0892   -0.0968   -2.4931 C.3       1 <0>        -0.1145
      5 C5          0.6269   -0.5903   -3.7519 C.3       1 <0>        -0.1123
      6 C6          0.7579   -2.1137   -3.7000 C.3       1 <0>        -0.0986
      7 C7          1.5654   -2.5144   -2.4637 C.3       1 <0>        -0.1149
      8 C8          0.8493   -2.0210   -1.2049 C.3       1 <0>        -0.1148
      9 C9          1.4741   -2.6072   -4.9588 C.3       1 <0>         0.1236
     10 N1          1.4939   -4.0720   -4.9669 N.am      1 <0>        -0.7311
     11 C10         2.0770   -4.7324   -5.9869 C.2       1 <0>         0.5885
     12 O1          2.5869   -4.1119   -6.9012 O.2       1 <0>        -0.5260
     13 C11         2.0968   -6.1987   -5.9949 C.2       1 <0>        -0.0300
     14 C12         2.6603   -7.0000   -6.9663 C.2       1 <0>        -0.1518
     15 C13         2.4522   -8.3302   -6.5762 C.2       1 <0>         0.1162
     16 C14         1.7784   -8.3156   -5.3964 C.2       1 <0>        -0.0574
     17 N2          1.5622   -7.0234   -5.0321 N.pl3     1 <0>        -0.5357
     18 H1          1.1051   -6.7315   -4.2279 H         1 <0>         0.4158
     19 N3          2.8669   -9.4758   -7.2805 N.pl3     1 <0>        -0.8787
     20 H2          1.0039    1.9031    0.0027 H         1 <0>         0.0533
     21 H3         -0.5459    1.8868   -0.8726 H         1 <0>         0.0565
     22 H4         -0.5289    1.8773    0.9072 H         1 <0>         0.0528
     23 H5          0.5293   -0.3651    0.8851 H         1 <0>         0.0607
     24 H6         -1.0205   -0.3814    0.0098 H         1 <0>         0.0606
     25 H7          1.7103   -0.0491   -1.3098 H         1 <0>         0.0703
     26 H8         -1.0813   -0.5452   -2.4401 H         1 <0>         0.0619
     27 H9         -0.1826    0.9885   -2.5300 H         1 <0>         0.0673
     28 H10         0.0517   -0.3048   -4.6326 H         1 <0>         0.0665
     29 H11         1.6190   -0.1418   -3.8049 H         1 <0>         0.0668
     30 H12        -0.2341   -2.5622   -3.6470 H         1 <0>         0.0767
     31 H13         1.6587   -3.5998   -2.4268 H         1 <0>         0.0585
     32 H14         2.5575   -2.0660   -2.5167 H         1 <0>         0.0663
     33 H15         1.4245   -2.3064   -0.3242 H         1 <0>         0.0627
     34 H16        -0.1428   -2.4694   -1.1520 H         1 <0>         0.0617
     35 H17         0.9469   -2.2461   -5.8419 H         1 <0>         0.0712
     36 H18         2.4967   -2.2299   -4.9666 H         1 <0>         0.0713
     37 H19         1.0875   -4.5666   -4.2381 H         1 <0>         0.3938
     38 H20         3.1666   -6.6653   -7.8597 H         1 <0>         0.1468
     39 H21         1.4691   -9.1868   -4.8379 H         1 <0>         0.1668
     40 H22         3.3448   -9.3828   -8.1195 H         1 <0>         0.3985
     41 H23         2.6748  -10.3585   -6.9270 H         1 <0>         0.3954
@<TRIPOS>BOND
     1    1    2 1
     2    1   20 1
     3    1   21 1
     4    1   22 1
     5    2    3 1
     6    2   23 1
     7    2   24 1
     8    3    8 1
     9    3    4 1
    10    3   25 1
    11    4    5 1
    12    4   26 1
    13    4   27 1
    14    5    6 1
    15    5   28 1
    16    5   29 1
    17    6    7 1
    18    6    9 1
    19    6   30 1
    20    7    8 1
    21    7   31 1
    22    7   32 1
    23    8   33 1
    24    8   34 1
    25    9   10 1
    26    9   35 1
    27    9   36 1
    28   10   11 am
    29   10   37 1
    30   11   12 2
    31   11   13 1
    32   13   17 1
    33   13   14 2
    34   14   15 1
    35   14   38 1
    36   15   16 2
    37   15   19 1
    38   16   17 1
    39   16   39 1
    40   17   18 1
    41   19   40 1
    42   19   41 1
@<TRIPOS>MOLECULE
ZINC44862831
   40    40     0     0     0
SMALL
USER_CHARGES

@<TRIPOS>ATOM
      1 C1          0.7268   -0.4453    1.4434 C.3       1 <0>        -0.1370
      2 C2         -0.1813    0.5380    2.1846 C.3       1 <0>        -0.0490
      3 H1         -0.1595    1.5039    1.6799 H         1 <0>         0.1239
      4 C3          0.3051    0.7006    3.6017 C.2       1 <0>         0.3873
      5 N1          0.9907   -0.2404    4.1613 N.2       1 <0>        -0.4111
      6 O1          1.4476   -0.0876    5.4928 O.3       1 <0>        -0.4237
      7 N2          0.0186    1.8525    4.3001 N.pl3     1 <0>        -0.8648
      8 C4         -1.5922    0.0085    2.1954 C.2       1 <0>         0.5212
      9 O2         -2.1481   -0.2148    3.2500 O.2       1 <0>        -0.5019
     10 N3         -2.2363   -0.2169    1.0331 N.am      1 <0>        -0.6694
     11 C5         -3.5087   -0.7989    1.0398 C.ar      1 <0>         0.1353
     12 C6         -3.8790   -1.6738    0.0270 C.ar      1 <0>        -0.1391
     13 C7         -5.1357   -2.2466    0.0365 C.ar      1 <0>        -0.0976
     14 C8         -6.0249   -1.9497    1.0531 C.ar      1 <0>        -0.0807
     15 C9         -5.6593   -1.0785    2.0628 C.ar      1 <0>        -0.1035
     16 C10        -4.4019   -0.5072    2.0624 C.ar      1 <0>        -0.1162
     17 C11        -7.3953   -2.5765    1.0603 C.3       1 <0>        -0.0294
     18 C12        -7.2594   -4.0993    1.1198 C.3       1 <0>        -0.1395
     19 C13        -8.1741   -2.0858    2.2824 C.3       1 <0>        -0.1462
     20 C14        -8.1438   -2.1807   -0.2141 C.3       1 <0>        -0.1387
     21 H2          1.7473   -0.0624    1.4356 H         1 <0>         0.0776
     22 H3          0.7050   -1.4112    1.9482 H         1 <0>         0.0785
     23 H4          0.3750   -0.5630    0.4185 H         1 <0>         0.0689
     24 H5          1.9513   -0.8433    5.8249 H         1 <0>         0.4002
     25 H6         -0.4962    2.5592    3.8799 H         1 <0>         0.3952
     26 H7          0.3316    1.9572    5.2122 H         1 <0>         0.4090
     27 H8         -1.8177    0.0244    0.1920 H         1 <0>         0.4120
     28 H9         -3.1852   -1.9058   -0.7674 H         1 <0>         0.1256
     29 H10        -5.4245   -2.9269   -0.7511 H         1 <0>         0.1254
     30 H11        -6.3562   -0.8483    2.8552 H         1 <0>         0.1295
     31 H12        -4.1152    0.1691    2.8541 H         1 <0>         0.1367
     32 H13        -6.7261   -4.3812    2.0277 H         1 <0>         0.0566
     33 H14        -8.2506   -4.5526    1.1250 H         1 <0>         0.0590
     34 H15        -6.7045   -4.4488    0.2492 H         1 <0>         0.0568
     35 H16        -8.2710   -1.0009    2.2400 H         1 <0>         0.0589
     36 H17        -9.1654   -2.5392    2.2876 H         1 <0>         0.0591
     37 H18        -7.6409   -2.3677    3.1903 H         1 <0>         0.0591
     38 H19        -7.5890   -2.5303   -1.0848 H         1 <0>         0.0568
     39 H20        -9.1351   -2.6341   -0.2089 H         1 <0>         0.0589
     40 H21        -8.2407   -1.0959   -0.2565 H         1 <0>         0.0564
@<TRIPOS>BOND
     1    1    2 1
     2    1   21 1
     3    1   22 1
     4    1   23 1
     5    2    3 1
     6    2    4 1
     7    2    8 1
     8    4    5 2
     9    4    7 1
    10    5    6 1
    11    6   24 1
    12    7   25 1
    13    7   26 1
    14    8    9 2
    15    8   10 am
    16   10   11 1
    17   10   27 1
    18   11   16 ar
    19   11   12 ar
    20   12   13 ar
    21   12   28 1
    22   13   14 ar
    23   13   29 1
    24   14   15 ar
    25   14   17 1
    26   15   16 ar
    27   15   30 1
    28   16   31 1
    29   17   18 1
    30   17   19 1
    31   17   20 1
    32   18   32 1
    33   18   33 1
    34   18   34 1
    35   19   35 1
    36   19   36 1
    37   19   37 1
    38   20   38 1
    39   20   39 1
    40   20   40 1
@<TRIPOS>MOLECULE
ZINC51998568
   36    37     0     0     0
SMALL
USER_CHARGES

@<TRIPOS>ATOM
      1 C1         -0.0184    1.5028    0.0103 C.3       1 <0>        -0.1064
      2 C2          0.0021   -0.0041    0.0020 C.ar      1 <0>        -0.1141
      3 C3          0.0058   -0.6881   -1.1979 C.ar      1 <0>        -0.1508
      4 C4          0.0251   -2.0763   -1.2055 C.ar      1 <0>         0.1635
      5 C5          0.0407   -2.7771   -0.0066 C.ar      1 <0>        -0.1546
      6 C6          0.0365   -2.0934    1.1929 C.ar      1 <0>        -0.1487
      7 C7          0.0230   -0.7046    1.2005 C.ar      1 <0>         0.1660
      8 N1          0.0251   -0.0112    2.4167 N.pl3     1 <0>        -0.7444
      9 C8          0.0471   -0.7505    3.6813 C.3       1 <0>         0.1672
     10 H1         -0.5309   -1.6685    3.5757 H         1 <0>         0.0839
     11 C9          1.4925   -1.0968    4.0445 C.3       1 <0>        -0.1314
     12 C10         1.5155   -1.8688    5.3652 C.3       1 <0>        -0.1186
     13 C11         0.9045   -1.0059    6.4711 C.3       1 <0>        -0.1172
     14 C12        -0.5408   -0.6596    6.1080 C.3       1 <0>        -0.1507
     15 C13        -0.5639    0.1125    4.7872 C.3       1 <0>         0.0991
     16 H2         -1.5936    0.3592    4.5285 H         1 <0>         0.0586
     17 O1          0.1939    1.3160    4.9258 O.3       1 <0>        -0.5601
     18 N2          0.0284   -2.7696   -2.4217 N.pl3     1 <0>        -0.8879
     19 H3          1.0042    1.8801    0.0026 H         1 <0>         0.0660
     20 H4         -0.5455    1.8639   -0.8728 H         1 <0>         0.0649
     21 H5         -0.5286    1.8543    0.9071 H         1 <0>         0.0593
     22 H6         -0.0067   -0.1430   -2.1302 H         1 <0>         0.1173
     23 H7          0.0557   -3.8570   -0.0125 H         1 <0>         0.1165
     24 H8          0.0479   -2.6384    2.1252 H         1 <0>         0.1190
     25 H9          0.0119    0.9587    2.4221 H         1 <0>         0.4014
     26 H10         1.9277   -1.7115    3.2567 H         1 <0>         0.0639
     27 H11         2.0705   -0.1787    4.1502 H         1 <0>         0.0733
     28 H12         0.9375   -2.7869    5.2596 H         1 <0>         0.0603
     29 H13         2.5452   -2.1155    5.6240 H         1 <0>         0.0646
     30 H14         0.9209   -1.5559    7.4120 H         1 <0>         0.0618
     31 H15         1.4826   -0.0878    6.5768 H         1 <0>         0.0694
     32 H16        -1.1189   -1.5776    6.0023 H         1 <0>         0.0732
     33 H17        -0.9761   -0.0448    6.8958 H         1 <0>         0.0688
     34 H18        -0.1373    1.9127    5.6109 H         1 <0>         0.3784
     35 H19         0.0172   -2.2801   -3.2591 H         1 <0>         0.3942
     36 H20         0.0419   -3.7395   -2.4271 H         1 <0>         0.3943
@<TRIPOS>BOND
     1    1    2 1
     2    1   19 1
     3    1   20 1
     4    1   21 1
     5    2    7 ar
     6    2    3 ar
     7    3    4 ar
     8    3   22 1
     9    4    5 ar
    10    4   18 1
    11    5    6 ar
    12    5   23 1
    13    6    7 ar
    14    6   24 1
    15    7    8 1
    16    8    9 1
    17    8   25 1
    18    9   10 1
    19    9   15 1
    20    9   11 1
    21   11   12 1
    22   11   26 1
    23   11   27 1
    24   12   13 1
    25   12   28 1
    26   12   29 1
    27   13   14 1
    28   13   30 1
    29   13   31 1
    30   14   15 1
    31   14   32 1
    32   14   33 1
    33   15   16 1
    34   15   17 1
    35   17   34 1
    36   18   35 1
    37   18   36 1
@<TRIPOS>MOLECULE
ZINC63099329
   33    34     0     0     0
SMALL
USER_CHARGES

@<TRIPOS>ATOM
      1 C1         -0.0167    1.3818    0.0096 C.ar      1 <0>        -0.1212
      2 C2          1.1702    2.0907    0.0021 C.ar      1 <0>        -0.1242
      3 C3          2.3840    1.4172   -0.0134 C.ar      1 <0>         0.1498
      4 C4          2.4085    0.0288   -0.0208 C.ar      1 <0>        -0.1831
      5 C5          1.2202   -0.6839   -0.0125 C.ar      1 <0>         0.1754
      6 C6          0.0021   -0.0041    0.0020 C.ar      1 <0>         0.1396
      7 N1         -1.2023   -0.7223    0.0094 N.pl3     1 <0>        -0.8838
      8 N2          1.2420   -2.0837   -0.0202 N.pl3     1 <0>        -0.7481
      9 C7          2.5219   -2.7963   -0.0369 C.3       1 <0>         0.1267
     10 C8          2.2657   -4.3047   -0.0423 C.3       1 <0>        -0.1814
     11 C9          3.6024   -5.0489   -0.0599 C.3       1 <0>         0.4596
     12 F1          4.3423   -4.7056    1.0768 F         1 <0>        -0.1802
     13 F2          3.3682   -6.4282   -0.0648 F         1 <0>        -0.1801
     14 F3          4.3190   -4.6935   -1.2076 F         1 <0>        -0.1802
     15 N3          3.5837    2.1402   -0.0212 N.am      1 <0>        -0.6611
     16 C10         3.6037    3.4318    0.3558 C.2       1 <0>         0.5208
     17 O1          4.6483    4.0477    0.3303 O.2       1 <0>        -0.5330
     18 C11         2.3445    4.1208    0.8081 C.3       1 <0>        -0.1381
     19 C12         1.1495    3.5975    0.0103 C.3       1 <0>        -0.0715
     20 H1         -0.9595    1.9084    0.0260 H         1 <0>         0.1292
     21 H2          3.3529   -0.4951   -0.0334 H         1 <0>         0.1276
     22 H3         -2.0491   -0.2492    0.0198 H         1 <0>         0.4005
     23 H4         -1.1887   -1.6922    0.0040 H         1 <0>         0.3899
     24 H5          0.4096   -2.5818   -0.0143 H         1 <0>         0.3969
     25 H6          3.0802   -2.5194   -0.9312 H         1 <0>         0.0743
     26 H7          3.0983   -2.5288    0.8487 H         1 <0>         0.0743
     27 H8          1.7074   -4.5816    0.8519 H         1 <0>         0.1172
     28 H9          1.6893   -4.5722   -0.9279 H         1 <0>         0.1172
     29 H10         4.4056    1.7069   -0.2999 H         1 <0>         0.4086
     30 H11         2.1856    3.9249    1.8685 H         1 <0>         0.1029
     31 H12         2.4429    5.1949    0.6504 H         1 <0>         0.1073
     32 H13         1.2063    3.9670   -1.0136 H         1 <0>         0.0799
     33 H14         0.2250    3.9455    0.4710 H         1 <0>         0.0884
@<TRIPOS>BOND
     1    1    6 ar
     2    1    2 ar
     3    1   20 1
     4    2   19 1
     5    2    3 ar
     6    3    4 ar
     7    3   15 1
     8    4    5 ar
     9    4   21 1
    10    5    6 ar
    11    5    8 1
    12    6    7 1
    13    7   22 1
    14    7   23 1
    15    8    9 1
    16    8   24 1
    17    9   10 1
    18    9   25 1
    19    9   26 1
    20   10   11 1
    21   10   27 1
    22   10   28 1
    23   11   12 1
    24   11   13 1
    25   11   14 1
    26   15   16 am
    27   15   29 1
    28   16   17 2
    29   16   18 1
    30   18   19 1
    31   18   30 1
    32   18   31 1
    33   19   32 1
    34   19   33 1
@<TRIPOS>MOLECULE
ZINC08907531
   63    66     0     0     0
SMALL
USER_CHARGES
1-(3-methoxyphenyl)-5-oxo-N-[5-[(2,4,6-trimethylphenyl)carbamoylmethylsulfanyl]-1,3,4-thiadiazol-2-yl]-pyrrolidine-3-carboxamide
@<TRIPOS>ATOM
      1 C1         -1.3293    2.5517   -0.2372 C.3       1 <0>        -0.1165
      2 C2         -0.0825    1.7220   -0.0693 C.ar      1 <0>        -0.0753
      3 C3          0.0841    0.9489    1.0650 C.ar      1 <0>        -0.1188
      4 C4          1.2282    0.1917    1.2245 C.ar      1 <0>        -0.0813
      5 C5          2.2119    0.2079    0.2445 C.ar      1 <0>         0.1203
      6 C6          2.0416    0.9854   -0.8935 C.ar      1 <0>        -0.0584
      7 C7          0.8950    1.7399   -1.0472 C.ar      1 <0>        -0.1182
      8 C8          3.1064    1.0055   -1.9597 C.3       1 <0>        -0.1086
      9 N1          3.3722   -0.5580    0.4030 N.am      1 <0>        -0.6664
     10 C9          4.5817    0.0352    0.3647 C.2       1 <0>         0.5353
     11 O1          4.6708    1.2137    0.0922 O.2       1 <0>        -0.5005
     12 C10         5.8236   -0.7657    0.6603 C.3       1 <0>        -0.1619
     13 S1          7.2805    0.3070    0.5290 S.3       1 <0>         0.1420
     14 C11         8.6317   -0.7622    0.8976 C.2       1 <0>        -0.0033
     15 N2          8.6384   -2.0498    1.2102 N.2       1 <0>        -0.2611
     16 N3          9.7094   -2.6735    1.4445 N.2       1 <0>        -0.2679
     17 C12        10.8905   -2.0790    1.4032 C.2       1 <0>         0.2761
     18 S2         10.3874   -0.4175    0.9647 S.3       1 <0>         0.0607
     19 N4         12.1622   -2.5974    1.6351 N.am      1 <0>        -0.6084
     20 C13        12.3114   -3.8975    1.9575 C.2       1 <0>         0.5247
     21 O2         11.3382   -4.6161    2.0456 O.2       1 <0>        -0.4548
     22 C14        13.6874   -4.4585    2.2084 C.3       1 <0>        -0.1168
     23 H1         14.3218   -4.3376    1.3304 H         1 <0>         0.1358
     24 C15        14.3332   -3.8046    3.4520 C.3       1 <0>        -0.1474
     25 C16        15.0948   -4.9333    4.1112 C.2       1 <0>         0.5202
     26 O3         15.9597   -4.7912    4.9496 O.2       1 <0>        -0.4933
     27 N5         14.6740   -6.1167    3.6322 N.am      1 <0>        -0.5570
     28 C17        13.6106   -5.9412    2.6351 C.3       1 <0>         0.1118
     29 C18        15.1843   -7.3567    4.0318 C.ar      1 <0>         0.2019
     30 C19        14.7644   -8.5189    3.3968 C.ar      1 <0>        -0.1929
     31 C20        15.2719   -9.7425    3.7881 C.ar      1 <0>        -0.0509
     32 C21        16.1901   -9.8153    4.8185 C.ar      1 <0>        -0.2313
     33 C22        16.6091   -8.6582    5.4598 C.ar      1 <0>         0.1562
     34 C23        16.1061   -7.4278    5.0664 C.ar      1 <0>        -0.1911
     35 O4         17.5124   -8.7312    6.4725 O.3       1 <0>        -0.3136
     36 C24        17.9882  -10.0317    6.8250 C.3       1 <0>         0.0266
     37 C25         1.4087   -0.6510    2.4607 C.3       1 <0>        -0.1133
     38 H2         -2.0899    1.9646   -0.7519 H         1 <0>         0.0723
     39 H3         -1.7019    2.8500    0.7427 H         1 <0>         0.0676
     40 H4         -1.0978    3.4407   -0.8239 H         1 <0>         0.0679
     41 H5         -0.6810    0.9373    1.8271 H         1 <0>         0.1266
     42 H6          0.7619    2.3448   -1.9320 H         1 <0>         0.1262
     43 H7          3.7455    1.8771   -1.8185 H         1 <0>         0.0861
     44 H8          3.7076    0.0990   -1.8899 H         1 <0>         0.0558
     45 H9          2.6362    1.0550   -2.9419 H         1 <0>         0.0628
     46 H10         3.3060   -1.5159    0.5406 H         1 <0>         0.4117
     47 H11         5.7617   -1.1727    1.6696 H         1 <0>         0.1321
     48 H12         5.9081   -1.5827   -0.0563 H         1 <0>         0.1311
     49 H13        12.9404   -2.0228    1.5647 H         1 <0>         0.4321
     50 H14        15.0146   -3.0079    3.1536 H         1 <0>         0.1239
     51 H15        13.5652   -3.4176    4.1217 H         1 <0>         0.1180
     52 H16        12.6385   -6.1561    3.0789 H         1 <0>         0.1052
     53 H17        13.7862   -6.5902    1.7772 H         1 <0>         0.1016
     54 H18        14.0439   -8.4652    2.5941 H         1 <0>         0.1290
     55 H19        14.9474  -10.6446    3.2906 H         1 <0>         0.1316
     56 H20        16.5823  -10.7738    5.1248 H         1 <0>         0.1301
     57 H21        16.4314   -6.5262    5.5641 H         1 <0>         0.1628
     58 H22        18.7014   -9.9478    7.6450 H         1 <0>         0.1019
     59 H23        17.1488  -10.6538    7.1358 H         1 <0>         0.0570
     60 H24        18.4773  -10.4856    5.9631 H         1 <0>         0.0570
     61 H25         1.8310   -0.0400    3.2585 H         1 <0>         0.0732
     62 H26         0.4424   -1.0440    2.7768 H         1 <0>         0.0714
     63 H27         2.0833   -1.4785    2.2410 H         1 <0>         0.0625
@<TRIPOS>BOND
     1    1    2 1
     2    1   38 1
     3    1   39 1
     4    1   40 1
     5    2    7 ar
     6    2    3 ar
     7    3    4 ar
     8    3   41 1
     9    4    5 ar
    10    4   37 1
    11    5    6 ar
    12    5    9 1
    13    6    7 ar
    14    6    8 1
    15    7   42 1
    16    8   43 1
    17    8   44 1
    18    8   45 1
    19    9   10 am
    20    9   46 1
    21   10   11 2
    22   10   12 1
    23   12   13 1
    24   12   47 1
    25   12   48 1
    26   13   14 1
    27   14   18 1
    28   14   15 2
    29   15   16 1
    30   16   17 2
    31   17   18 1
    32   17   19 1
    33   19   20 am
    34   19   49 1
    35   20   21 2
    36   20   22 1
    37   22   23 1
    38   22   28 1
    39   22   24 1
    40   24   25 1
    41   24   50 1
    42   24   51 1
    43   25   26 2
    44   25   27 am
    45   27   28 1
    46   27   29 1
    47   28   52 1
    48   28   53 1
    49   29   34 ar
    50   29   30 ar
    51   30   31 ar
    52   30   54 1
    53   31   32 ar
    54   31   55 1
    55   32   33 ar
    56   32   56 1
    57   33   34 ar
    58   33   35 1
    59   34   57 1
    60   35   36 1
    61   36   58 1
    62   36   59 1
    63   36   60 1
    64   37   61 1
    65   37   62 1
    66   37   63 1
@<TRIPOS>MOLECULE
ZINC20504770
   81    84     0     0     0
SMALL
USER_CHARGES
N-[(4S,4aR,7R,8R,8aS)-7-hydroxy-8-(hydroxymethyl)-4a,8-dimethyl-4-[2-(2-morpholinoethylamino)-2-oxo-ethyl]-4,5,6,7,8a,9-hexahydrobenzo[f][1,3]benzothiazol-2-yl]-2,2-dimethyl-propanamide
@<TRIPOS>ATOM
      1 C1         -1.7869   -4.6703    1.1234 C.3       1 <0>        -0.2148
      2 C2         -2.7521   -3.9931    0.1484 C.3       1 <0>        -0.0434
      3 C3         -2.2171   -4.1116   -1.2827 C.3       1 <0>        -0.1110
      4 C4         -2.1375   -5.5783   -1.7010 C.3       1 <0>        -0.1141
      5 C5         -3.5442   -6.1824   -1.6503 C.3       1 <0>         0.1316
      6 H1         -4.2292   -5.6834   -2.3516 H         1 <0>         0.0469
      7 C6         -4.0582   -6.1080   -0.2139 C.3       1 <0>        -0.0784
      8 C7         -4.1303   -4.6504    0.2514 C.3       1 <0>        -0.0538
      9 H2         -4.8322   -4.0851   -0.3793 H         1 <0>         0.0850
     10 C8         -4.5686   -4.6651    1.7290 C.3       1 <0>        -0.0320
     11 C9         -4.3213   -3.3229    2.3210 C.2       1 <0>        -0.2428
     12 C10        -3.5645   -2.3174    1.8108 C.2       1 <0>         0.1019
     13 N1         -3.5009   -1.2067    2.5417 N.2       1 <0>        -0.5116
     14 C11        -4.1329   -1.0853    3.6905 C.2       1 <0>         0.2881
     15 S1         -4.9171   -2.6296    3.8399 S.3       1 <0>         0.1330
     16 N2         -4.1647   -0.0013    4.5600 N.am      1 <0>        -0.6215
     17 C12        -4.8789   -0.0732    5.7008 C.2       1 <0>         0.5242
     18 O1         -5.4937   -1.0838    5.9686 O.2       1 <0>        -0.5027
     19 C13        -4.9134    1.1020    6.6435 C.3       1 <0>        -0.0730
     20 C14        -5.7886    0.7614    7.8513 C.3       1 <0>        -0.1330
     21 C15        -3.4931    1.4188    7.1159 C.3       1 <0>        -0.1461
     22 C16        -5.4937    2.3190    5.9202 C.3       1 <0>        -0.1470
     23 C17        -2.8524   -2.4981    0.4791 C.3       1 <0>         0.0185
     24 H3         -3.4244   -1.9817   -0.3059 H         1 <0>         0.0928
     25 C18        -1.4468   -1.9004    0.5675 C.3       1 <0>        -0.1301
     26 C19        -1.5454   -0.4023    0.6990 C.2       1 <0>         0.5174
     27 O2         -2.6328    0.1343    0.7198 O.2       1 <0>        -0.5042
     28 N3         -0.4251    0.3410    0.7933 N.am      1 <0>        -0.7521
     29 C20        -0.5209    1.7973    0.9211 C.3       1 <0>         0.1320
     30 C21         0.8847    2.3951    1.0096 C.3       1 <0>         0.0448
     31 N4          0.7886    3.8553    1.1377 N.3       1 <0>        -0.5327
     32 C22         0.2365    4.4563   -0.0851 C.3       1 <0>         0.0116
     33 C23         0.0981    5.9680    0.1132 C.3       1 <0>         0.0612
     34 O3          1.3728    6.5171    0.4585 O.3       1 <0>        -0.3845
     35 C24         1.9396    5.9548    1.6450 C.3       1 <0>         0.0613
     36 C25         2.0966    4.4429    1.4622 C.3       1 <0>         0.0175
     37 C26        -5.4534   -6.7318   -0.1426 C.3       1 <0>        -0.1470
     38 C27        -3.1124   -6.8860    0.7032 C.3       1 <0>         0.0521
     39 O4         -3.1665   -8.2757    0.3747 O.3       1 <0>        -0.5856
     40 O5         -3.4952   -7.5469   -2.0718 O.3       1 <0>        -0.5803
     41 H4         -0.7970   -4.1965    1.0479 H         1 <0>         0.0571
     42 H5         -1.7024   -5.7382    0.8734 H         1 <0>         0.1181
     43 H6         -2.1674   -4.5631    2.1499 H         1 <0>         0.0619
     44 H7         -2.8897   -3.5786   -1.9709 H         1 <0>         0.0681
     45 H8         -1.2117   -3.6686   -1.3362 H         1 <0>         0.0735
     46 H9         -1.7389   -5.6467   -2.7239 H         1 <0>         0.0705
     47 H10        -1.4736   -6.1207   -1.0117 H         1 <0>         0.0742
     48 H11        -5.6400   -4.9062    1.7912 H         1 <0>         0.0800
     49 H12        -3.9896   -5.4240    2.2757 H         1 <0>         0.0906
     50 H13        -3.6070    0.9152    4.3171 H         1 <0>         0.4485
     51 H14        -5.8138    1.6192    8.5394 H         1 <0>         0.0693
     52 H15        -5.3715   -0.1136    8.3712 H         1 <0>         0.0656
     53 H16        -6.8098    0.5337    7.5116 H         1 <0>         0.0658
     54 H17        -3.5184    2.2766    7.8040 H         1 <0>         0.0771
     55 H18        -2.8639    1.6637    6.2475 H         1 <0>         0.0616
     56 H19        -3.0759    0.5438    7.6358 H         1 <0>         0.0645
     57 H20        -5.5189    3.1769    6.6083 H         1 <0>         0.0770
     58 H21        -6.5149    2.0912    5.5806 H         1 <0>         0.0650
     59 H22        -4.8645    2.5638    5.0518 H         1 <0>         0.0624
     60 H23        -0.9278   -2.3122    1.4456 H         1 <0>         0.0927
     61 H24        -0.8833   -2.1523   -0.3430 H         1 <0>         0.0946
     62 H25         0.5612   -0.1458    0.7743 H         1 <0>         0.4132
     63 H26        -1.0398    2.2091    0.0430 H         1 <0>         0.0611
     64 H27        -1.0845    2.0492    1.8316 H         1 <0>         0.0704
     65 H28         1.4036    1.9833    1.8878 H         1 <0>         0.0821
     66 H29         1.4483    2.1432    0.0992 H         1 <0>         0.0414
     67 H30         0.9122    4.2557   -0.9296 H         1 <0>         0.0449
     68 H31        -0.7514    4.0201   -0.2943 H         1 <0>         0.0911
     69 H32        -0.2615    6.4286   -0.8187 H         1 <0>         0.1008
     70 H33        -0.6205    6.1675    0.9218 H         1 <0>         0.0618
     71 H34         2.9246    6.4078    1.8311 H         1 <0>         0.1009
     72 H35         1.2763    6.1559    2.4991 H         1 <0>         0.0615
     73 H36         2.4783    3.9968    2.3924 H         1 <0>         0.0883
     74 H37         2.8023    4.2420    0.6427 H         1 <0>         0.0448
     75 H38        -5.8260   -6.6795    0.8910 H         1 <0>         0.0592
     76 H39        -5.4015   -7.7835   -0.4609 H         1 <0>         0.0693
     77 H40        -6.1357   -6.1809   -0.8067 H         1 <0>         0.0530
     78 H41        -2.0849   -6.5170    0.5683 H         1 <0>         0.0983
     79 H42        -3.4182   -6.7446    1.7503 H         1 <0>         0.0427
     80 H43        -2.5500   -8.9968    0.9313 H         1 <0>         0.3992
     81 H44        -4.4166   -8.1471   -2.1005 H         1 <0>         0.3996
@<TRIPOS>BOND
     1    1    2 1
     2    1   41 1
     3    1   42 1
     4    1   43 1
     5    2    8 1
     6    2   23 1
     7    2    3 1
     8    3    4 1
     9    3   44 1
    10    3   45 1
    11    4    5 1
    12    4   46 1
    13    4   47 1
    14    5    6 1
    15    5    7 1
    16    5   40 1
    17    7    8 1
    18    7   37 1
    19    7   38 1
    20    8    9 1
    21    8   10 1
    22   10   11 1
    23   10   48 1
    24   10   49 1
    25   11   15 1
    26   11   12 2
    27   12   13 1
    28   12   23 1
    29   13   14 2
    30   14   15 1
    31   14   16 1
    32   16   17 am
    33   16   50 1
    34   17   18 2
    35   17   19 1
    36   19   20 1
    37   19   21 1
    38   19   22 1
    39   20   51 1
    40   20   52 1
    41   20   53 1
    42   21   54 1
    43   21   55 1
    44   21   56 1
    45   22   57 1
    46   22   58 1
    47   22   59 1
    48   23   24 1
    49   23   25 1
    50   25   26 1
    51   25   60 1
    52   25   61 1
    53   26   27 2
    54   26   28 am
    55   28   29 1
    56   28   62 1
    57   29   30 1
    58   29   63 1
    59   29   64 1
    60   30   31 1
    61   30   65 1
    62   30   66 1
    63   31   36 1
    64   31   32 1
    65   32   33 1
    66   32   67 1
    67   32   68 1
    68   33   34 1
    69   33   69 1
    70   33   70 1
    71   34   35 1
    72   35   36 1
    73   35   71 1
    74   35   72 1
    75   36   73 1
    76   36   74 1
    77   37   75 1
    78   37   76 1
    79   37   77 1
    80   38   39 1
    81   38   78 1
    82   38   79 1
    83   39   80 1
    84   40   81 1
@<TRIPOS>MOLECULE
ZINC36500552
   67    69     0     0     0
SMALL
USER_CHARGES

@<TRIPOS>ATOM
      1 C1          1.4942    1.0636   -1.1812 C.3       1 <0>        -0.1545
      2 C2          1.2423   -0.4229   -0.9206 C.3       1 <0>        -0.1169
      3 C3          1.5279   -0.7386    0.5490 C.3       1 <0>        -0.0932
      4 C4          1.1649   -2.1731    0.8343 C.2       1 <0>        -0.1079
      5 C5          2.0664   -2.9940    1.3134 C.2       1 <0>        -0.1957
      6 C6          1.7175   -4.4406    1.5514 C.3       1 <0>         0.1742
      7 H1          2.3165   -5.0717    0.8949 H         1 <0>         0.1260
      8 C7          2.0030   -4.7964    2.9878 C.2       1 <0>         0.5169
      9 O1          1.1071   -5.1887    3.7049 O.2       1 <0>        -0.4847
     10 N1          3.2540   -4.6786    3.4753 N.am      1 <0>        -0.7082
     11 C8          3.5315   -5.0245    4.8716 C.3       1 <0>        -0.3533
     12 S1          4.1213   -6.7374    4.9645 S.o2      1 <0>         2.4677
     13 O2          4.4551   -7.0681    6.3056 O.2       1 <0>        -0.9349
     14 O3          3.2799   -7.5871    4.1968 O.2       1 <0>        -0.9169
     15 C9          5.6600   -6.7337    4.1060 C.ar      1 <0>        -0.6647
     16 C10         5.6933   -6.9783    2.7459 C.ar      1 <0>        -0.0168
     17 C11         6.9005   -6.9753    2.0724 C.ar      1 <0>        -0.1411
     18 C12         8.0744   -6.7274    2.7589 C.ar      1 <0>        -0.0282
     19 C13         8.0410   -6.4819    4.1189 C.ar      1 <0>        -0.1406
     20 C14         6.8334   -6.4806    4.7916 C.ar      1 <0>        -0.0206
     21 C15         9.3905   -6.7251    2.0249 C.3       1 <0>        -0.1267
     22 N2          0.2957   -4.6529    1.2691 N.am      1 <0>        -0.5918
     23 C16        -0.1093   -5.5244    0.1634 C.3       1 <0>         0.1965
     24 C17        -0.1014   -6.9588    0.6255 C.2       1 <0>        -0.0575
     25 C18        -1.1677   -7.6482    1.0696 C.2       1 <0>        -0.1543
     26 C19        -0.7102   -8.9459    1.3942 C.2       1 <0>        -0.2155
     27 C20         0.6083   -8.9720    1.1291 C.2       1 <0>        -0.0217
     28 O4          0.9704   -7.7675    0.6583 O.3       1 <0>        -0.1736
     29 C21        -0.6396   -4.0465    2.0266 C.2       1 <0>         0.5934
     30 O5         -0.3034   -3.3229    2.9446 O.2       1 <0>        -0.4946
     31 C22        -2.0686   -4.2598    1.7428 C.ar      1 <0>        -0.1856
     32 C23        -2.7628   -5.3089    2.3629 C.ar      1 <0>         0.1673
     33 C24        -4.1073   -5.5004    2.0891 C.ar      1 <0>        -0.1592
     34 C25        -4.7647   -4.6618    1.2082 C.ar      1 <0>        -0.0685
     35 C26        -4.0899   -3.6249    0.5912 C.ar      1 <0>        -0.1559
     36 C27        -2.7466   -3.4119    0.8550 C.ar      1 <0>         0.1495
     37 O6         -2.0883   -2.3899    0.2529 O.3       1 <0>        -0.4848
     38 O7         -2.1199   -6.1335    3.2273 O.3       1 <0>        -0.4767
     39 H2          2.5334    1.3014   -0.9537 H         1 <0>         0.0533
     40 H3          1.2908    1.2885   -2.2282 H         1 <0>         0.0551
     41 H4          0.8379    1.6599   -0.5473 H         1 <0>         0.0548
     42 H5          0.2032   -0.6606   -1.1481 H         1 <0>         0.0633
     43 H6          1.8986   -1.0192   -1.5545 H         1 <0>         0.0615
     44 H7          2.5871   -0.5840    0.7546 H         1 <0>         0.0654
     45 H8          0.9346   -0.0805    1.1839 H         1 <0>         0.0754
     46 H9          0.1615   -2.5244    0.6438 H         1 <0>         0.1175
     47 H10         3.0596   -2.6341    1.5377 H         1 <0>         0.1252
     48 H11         3.9705   -4.3649    2.9017 H         1 <0>         0.4102
     49 H12         4.2957   -4.3552    5.2667 H         1 <0>         0.1431
     50 H13         2.6194   -4.9219    5.4595 H         1 <0>         0.1543
     51 H14         4.7761   -7.1720    2.2095 H         1 <0>         0.1400
     52 H15         6.9265   -7.1671    1.0099 H         1 <0>         0.1334
     53 H16         8.9582   -6.2885    4.6554 H         1 <0>         0.1336
     54 H17         6.8070   -6.2851    5.8535 H         1 <0>         0.1414
     55 H18         9.6033   -5.7190    1.6635 H         1 <0>         0.0803
     56 H19        10.1840   -7.0438    2.7008 H         1 <0>         0.0735
     57 H20         9.3361   -7.4110    1.1795 H         1 <0>         0.0736
     58 H21        -1.1132   -5.2536   -0.1637 H         1 <0>         0.1078
     59 H22         0.5874   -5.4062   -0.6665 H         1 <0>         0.0986
     60 H23        -2.1791   -7.2806    1.1611 H         1 <0>         0.1436
     61 H24        -1.3051   -9.7600    1.7812 H         1 <0>         0.1447
     62 H25         1.2637   -9.8192    1.2676 H         1 <0>         0.1999
     63 H26        -4.6438   -6.3078    2.5652 H         1 <0>         0.1393
     64 H27        -5.8129   -4.8181    1.0004 H         1 <0>         0.1375
     65 H28        -4.6128   -2.9761   -0.0958 H         1 <0>         0.1391
     66 H29        -1.6844   -2.6265   -0.5933 H         1 <0>         0.3899
     67 H30        -2.1459   -5.8365    4.1472 H         1 <0>         0.3977
@<TRIPOS>BOND
     1    1    2 1
     2    1   39 1
     3    1   40 1
     4    1   41 1
     5    2    3 1
     6    2   42 1
     7    2   43 1
     8    3    4 1
     9    3   44 1
    10    3   45 1
    11    4    5 2
    12    4   46 1
    13    5    6 1
    14    5   47 1
    15    6    7 1
    16    6    8 1
    17    6   22 1
    18    8    9 2
    19    8   10 am
    20   10   11 1
    21   10   48 1
    22   11   12 1
    23   11   49 1
    24   11   50 1
    25   12   13 2
    26   12   14 2
    27   12   15 1
    28   15   20 ar
    29   15   16 ar
    30   16   17 ar
    31   16   51 1
    32   17   18 ar
    33   17   52 1
    34   18   19 ar
    35   18   21 1
    36   19   20 ar
    37   19   53 1
    38   20   54 1
    39   21   55 1
    40   21   56 1
    41   21   57 1
    42   22   23 1
    43   22   29 am
    44   23   24 1
    45   23   58 1
    46   23   59 1
    47   24   28 1
    48   24   25 2
    49   25   26 1
    50   25   60 1
    51   26   27 2
    52   26   61 1
    53   27   28 1
    54   27   62 1
    55   29   30 2
    56   29   31 1
    57   31   36 ar
    58   31   32 ar
    59   32   33 ar
    60   32   38 1
    61   33   34 ar
    62   33   63 1
    63   34   35 ar
    64   34   64 1
    65   35   36 ar
    66   35   65 1
    67   36   37 1
    68   37   66 1
    69   38   67 1
@<TRIPOS>MOLECULE
ZINC39915943
   70    73     0     0     0
SMALL
USER_CHARGES

@<TRIPOS>ATOM
      1 C1          0.4315    1.9070    0.6260 C.3       1 <0>        -0.1538
      2 C2          0.3912    0.3780    0.5886 C.3       1 <0>        -0.0935
      3 C3         -1.0624   -0.0955    0.6488 C.3       1 <0>        -0.1478
      4 C4          1.0358   -0.1177   -0.7075 C.3       1 <0>        -0.1141
      5 C5          2.5214    0.2483   -0.7106 C.3       1 <0>         0.0556
      6 O1          3.1234   -0.2147   -1.9212 O.3       1 <0>        -0.3019
      7 C6          4.4509    0.0315   -2.0839 C.ar      1 <0>         0.1179
      8 C7          5.1594    0.6987   -1.0976 C.ar      1 <0>        -0.1746
      9 C8          6.5089    0.9477   -1.2644 C.ar      1 <0>        -0.0884
     10 C9          7.1546    0.5328   -2.4144 C.ar      1 <0>        -0.1200
     11 C10         6.4535   -0.1330   -3.4025 C.ar      1 <0>        -0.1485
     12 C11         5.1020   -0.3912   -3.2388 C.ar      1 <0>         0.0997
     13 O2          4.4122   -1.0513   -4.2072 O.3       1 <0>        -0.3028
     14 C12         5.1455   -1.4553   -5.3653 C.3       1 <0>         0.0237
     15 C13         8.6258    0.8073   -2.5913 C.3       1 <0>         0.1552
     16 N1          9.4001   -0.3105   -2.0461 N.pl3     1 <0>        -0.4683
     17 C14         9.8555   -0.4369   -0.7439 C.ar      1 <0>         0.0624
     18 C15         9.7574    0.3553    0.3898 C.ar      1 <0>        -0.1125
     19 C16        10.3361   -0.0613    1.5710 C.ar      1 <0>        -0.0980
     20 C17        11.0165   -1.2683    1.6326 C.ar      1 <0>        -0.1295
     21 C18        11.1242   -2.0675    0.5165 C.ar      1 <0>        -0.0579
     22 C19        10.5431   -1.6604   -0.6871 C.ar      1 <0>         0.0556
     23 N2         10.4788   -2.2136   -1.9264 N.2       1 <0>        -0.4516
     24 C20         9.8027   -1.4253   -2.7258 C.2       1 <0>         0.2604
     25 S1          9.4674   -1.7519   -4.4245 S.3       1 <0>         0.0048
     26 C21        10.2528   -3.3591   -4.7257 C.3       1 <0>         0.0772
     27 H1          9.8751   -4.0883   -4.0090 H         1 <0>         0.1080
     28 C22         9.9303   -3.8264   -6.1475 C.3       1 <0>         0.0630
     29 H2          8.8541   -3.9655   -6.2499 H         1 <0>         0.0819
     30 C23        10.6458   -5.1542   -6.4147 C.3       1 <0>         0.0816
     31 H3         10.4659   -5.4646   -7.4440 H         1 <0>         0.0838
     32 C24        12.1495   -4.9651   -6.1919 C.3       1 <0>         0.0936
     33 H4         12.5355   -4.2400   -6.9083 H         1 <0>         0.0944
     34 C25        12.3862   -4.4538   -4.7685 C.3       1 <0>         0.1046
     35 H5         13.4512   -4.2767   -4.6182 H         1 <0>         0.1187
     36 O3         11.6684   -3.2332   -4.5764 O.3       1 <0>        -0.3240
     37 C26        11.8958   -5.4977   -3.7632 C.3       1 <0>         0.0500
     38 O4         12.2540   -5.0909   -2.4410 O.3       1 <0>        -0.5595
     39 O5         12.8194   -6.2148   -6.3693 O.3       1 <0>        -0.5475
     40 O6         10.1502   -6.1527   -5.5207 O.3       1 <0>        -0.5364
     41 O7         10.3763   -2.8449   -7.0854 O.3       1 <0>        -0.5401
     42 H6          1.4671    2.2443    0.5831 H         1 <0>         0.0545
     43 H7         -0.1162    2.3059   -0.2279 H         1 <0>         0.0578
     44 H8         -0.0277    2.2601    1.5493 H         1 <0>         0.0581
     45 H9          0.9389   -0.0209    1.4424 H         1 <0>         0.0726
     46 H10        -1.6101    0.3034   -0.2050 H         1 <0>         0.0569
     47 H11        -1.0912   -1.1848    0.6222 H         1 <0>         0.0566
     48 H12        -1.5216    0.2576    1.5722 H         1 <0>         0.0583
     49 H13         0.9281   -1.2002   -0.7759 H         1 <0>         0.0749
     50 H14         0.5443    0.3510   -1.5600 H         1 <0>         0.0755
     51 H15         2.6291    1.3308   -0.6422 H         1 <0>         0.0653
     52 H16         3.0128   -0.2204    0.1419 H         1 <0>         0.0615
     53 H17         4.6573    1.0245   -0.1987 H         1 <0>         0.1381
     54 H18         7.0600    1.4679   -0.4949 H         1 <0>         0.1273
     55 H19         6.9601   -0.4557   -4.3000 H         1 <0>         0.1371
     56 H20         4.4782   -1.9698   -6.0567 H         1 <0>         0.1025
     57 H21         5.5670   -0.5765   -5.8533 H         1 <0>         0.0555
     58 H22         5.9506   -2.1277   -5.0692 H         1 <0>         0.0556
     59 H23         8.8492    0.9209   -3.6521 H         1 <0>         0.1016
     60 H24         8.8903    1.7239   -2.0641 H         1 <0>         0.1051
     61 H25         9.2296    1.2966    0.3483 H         1 <0>         0.1198
     62 H26        10.2590    0.5567    2.4534 H         1 <0>         0.1303
     63 H27        11.4656   -1.5836    2.5629 H         1 <0>         0.1301
     64 H28        11.6561   -3.0059    0.5713 H         1 <0>         0.1306
     65 H29        10.8119   -5.5893   -3.8340 H         1 <0>         0.0723
     66 H30        12.3569   -6.4602   -3.9847 H         1 <0>         0.0604
     67 H31        11.9740   -5.7072   -1.7504 H         1 <0>         0.3733
     68 H32        12.7079   -6.5994   -7.2496 H         1 <0>         0.3833
     69 H33         9.2012   -6.3190   -5.6038 H         1 <0>         0.3787
     70 H34         9.9663   -1.9767   -6.9711 H         1 <0>         0.3852
@<TRIPOS>BOND
     1    1    2 1
     2    1   42 1
     3    1   43 1
     4    1   44 1
     5    2    3 1
     6    2    4 1
     7    2   45 1
     8    3   46 1
     9    3   47 1
    10    3   48 1
    11    4    5 1
    12    4   49 1
    13    4   50 1
    14    5    6 1
    15    5   51 1
    16    5   52 1
    17    6    7 1
    18    7   12 ar
    19    7    8 ar
    20    8    9 ar
    21    8   53 1
    22    9   10 ar
    23    9   54 1
    24   10   11 ar
    25   10   15 1
    26   11   12 ar
    27   11   55 1
    28   12   13 1
    29   13   14 1
    30   14   56 1
    31   14   57 1
    32   14   58 1
    33   15   16 1
    34   15   59 1
    35   15   60 1
    36   16   24 1
    37   16   17 1
    38   17   22 ar
    39   17   18 ar
    40   18   19 ar
    41   18   61 1
    42   19   20 ar
    43   19   62 1
    44   20   21 ar
    45   20   63 1
    46   21   22 ar
    47   21   64 1
    48   22   23 1
    49   23   24 2
    50   24   25 1
    51   25   26 1
    52   26   27 1
    53   26   36 1
    54   26   28 1
    55   28   29 1
    56   28   30 1
    57   28   41 1
    58   30   31 1
    59   30   32 1
    60   30   40 1
    61   32   33 1
    62   32   34 1
    63   32   39 1
    64   34   35 1
    65   34   36 1
    66   34   37 1
    67   37   38 1
    68   37   65 1
    69   37   66 1
    70   38   67 1
    71   39   68 1
    72   40   69 1
    73   41   70 1
@<TRIPOS>MOLECULE
ZINC59831302
   62    64     0     0     0
SMALL
USER_CHARGES

@<TRIPOS>ATOM
      1 C1         -5.4916   -3.2172   -0.4519 C.3       1 <0>        -0.1606
      2 C2         -4.1753   -2.8697    0.2462 C.3       1 <0>         0.1088
      3 N1         -3.1024   -2.7867   -0.7479 N.pl3     1 <0>        -1.1175
      4 S1         -1.6615   -2.0723   -0.3533 S.o2      1 <0>         2.6972
      5 O1         -0.8311   -2.1710   -1.5022 O.2       1 <0>        -0.9591
      6 O2         -1.9782   -0.8268    0.2530 O.2       1 <0>        -0.9551
      7 C3         -0.9129   -3.0645    0.8957 C.ar      1 <0>        -0.6937
      8 C4         -1.1763   -2.8098    2.2291 C.ar      1 <0>         0.0009
      9 C5         -0.5912   -3.5857    3.2105 C.ar      1 <0>        -0.1426
     10 C6          0.2621   -4.6228    2.8570 C.ar      1 <0>         0.2054
     11 C7          0.5241   -4.8762    1.5170 C.ar      1 <0>        -0.1654
     12 C8         -0.0679   -4.0998    0.5402 C.ar      1 <0>         0.0034
     13 N2          0.8569   -5.4104    3.8489 N.am      1 <0>        -0.6709
     14 C9          0.1928   -5.6682    4.9930 C.2       1 <0>         0.5390
     15 O3         -0.9551   -5.2991    5.1243 O.2       1 <0>        -0.4908
     16 C10         0.8765   -6.4151    6.1091 C.3       1 <0>        -0.1655
     17 S2         -0.2702   -6.6033    7.5021 S.3       1 <0>         0.1177
     18 C11         0.6651   -7.4835    8.7083 C.2       1 <0>         0.2159
     19 N3          0.2226   -7.8570    9.9137 N.2       1 <0>        -0.5184
     20 C12         1.1777   -8.4946   10.5580 C.2       1 <0>         0.5667
     21 N4          2.2638   -8.5376    9.7571 N.pl3     1 <0>        -0.5060
     22 N5          1.9064   -7.8835    8.5671 N.2       1 <0>        -0.3268
     23 N6          1.0847   -9.0264   11.8305 N.pl3     1 <0>        -0.5528
     24 N7         -0.1098   -8.9094   12.5531 N.2       1 <0>        -0.2168
     25 C13        -0.1971   -9.4085   13.7474 C.2       1 <0>         0.1584
     26 C14        -1.4557   -9.2852   14.5088 C.2       1 <0>        -0.2134
     27 C15        -2.6424   -8.6609   14.0682 C.2       1 <0>         0.1234
     28 N8         -3.5301   -8.7572   15.0210 N.2       1 <0>        -0.2987
     29 N9         -2.9604   -9.4390   16.1024 N.pl3     1 <0>        -0.3567
     30 C16        -1.6922   -9.7634   15.7792 C.2       1 <0>         0.1280
     31 C17        -0.7128  -10.5093   16.6484 C.3       1 <0>        -0.0999
     32 C18        -3.6294   -9.7511   17.3677 C.3       1 <0>         0.1584
     33 C19        -4.3071  -11.0928   17.2600 C.2       1 <0>        -0.1809
     34 C20        -4.0404  -12.0333   18.1321 C.2       1 <0>        -0.1628
     35 C21        -2.8489   -7.9976   12.7308 C.3       1 <0>        -0.0776
     36 H1         -6.2899   -3.2790    0.2877 H         1 <0>         0.0740
     37 H2         -5.7313   -2.4436   -1.1814 H         1 <0>         0.0648
     38 H3         -5.3915   -4.1767   -0.9594 H         1 <0>         0.0626
     39 H4         -4.2755   -1.9102    0.7537 H         1 <0>         0.0816
     40 H5         -3.9356   -3.6433    0.9757 H         1 <0>         0.0666
     41 H6         -3.2361   -3.1501   -1.6373 H         1 <0>         0.4192
     42 H7         -1.8399   -2.0031    2.5034 H         1 <0>         0.1456
     43 H8         -0.7967   -3.3858    4.2518 H         1 <0>         0.1470
     44 H9          1.1875   -5.6818    1.2389 H         1 <0>         0.1381
     45 H10         0.1322   -4.2989   -0.5022 H         1 <0>         0.1458
     46 H11         1.7471   -5.7708    3.7131 H         1 <0>         0.4189
     47 H12         1.1815   -7.3995    5.7541 H         1 <0>         0.1274
     48 H13         1.7550   -5.8579    6.4344 H         1 <0>         0.1287
     49 H14         1.8466   -9.4806   12.2231 H         1 <0>         0.3966
     50 H15         0.6511   -9.9142   14.1846 H         1 <0>         0.1171
     51 H16        -0.1503   -9.7989   17.2542 H         1 <0>         0.0874
     52 H17        -1.2545  -11.1943   17.3008 H         1 <0>         0.0774
     53 H18        -0.0254  -11.0744   16.0189 H         1 <0>         0.0883
     54 H19        -2.8929   -9.7796   18.1708 H         1 <0>         0.0995
     55 H20        -4.3734   -8.9846   17.5841 H         1 <0>         0.1084
     56 H21        -5.0127  -11.2790   16.4639 H         1 <0>         0.1182
     57 H22        -4.5261  -12.9948   18.0549 H         1 <0>         0.1072
     58 H23        -3.3348  -11.8471   18.9282 H         1 <0>         0.1018
     59 H24        -3.2225   -8.7304   12.0156 H         1 <0>         0.0784
     60 H25        -3.5725   -7.1890   12.8341 H         1 <0>         0.0689
     61 H26        -1.9009   -7.5936   12.3754 H         1 <0>         0.1014
     62 H27         3.1207   -8.9435    9.9618 H         1 <0>         0.4383
@<TRIPOS>BOND
     1    1    2 1
     2    1   36 1
     3    1   37 1
     4    1   38 1
     5    2    3 1
     6    2   39 1
     7    2   40 1
     8    3    4 1
     9    3   41 1
    10    4    5 2
    11    4    6 2
    12    4    7 1
    13    7   12 ar
    14    7    8 ar
    15    8    9 ar
    16    8   42 1
    17    9   10 ar
    18    9   43 1
    19   10   11 ar
    20   10   13 1
    21   11   12 ar
    22   11   44 1
    23   12   45 1
    24   13   14 am
    25   13   46 1
    26   14   15 2
    27   14   16 1
    28   16   17 1
    29   16   47 1
    30   16   48 1
    31   17   18 1
    32   18   22 2
    33   18   19 1
    34   19   20 2
    35   20   21 1
    36   20   23 1
    37   21   22 1
    38   21   62 1
    39   23   24 1
    40   23   49 1
    41   24   25 2
    42   25   26 1
    43   25   50 1
    44   26   30 2
    45   26   27 1
    46   27   28 2
    47   27   35 1
    48   28   29 1
    49   29   30 1
    50   29   32 1
    51   30   31 1
    52   31   51 1
    53   31   52 1
    54   31   53 1
    55   32   33 1
    56   32   54 1
    57   32   55 1
    58   33   34 2
    59   33   56 1
    60   34   57 1
    61   34   58 1
    62   35   59 1
    63   35   60 1
    64   35   61 1
@<TRIPOS>MOLECULE
ZINC00659288
   65    68     0     0     0
SMALL
USER_CHARGES
methyl 4-[2-[4-(2-amino-3-cyano-5-oxo-4,6,7,8-tetrahydrochromen-4-yl)-2-ethoxy-phenoxy]acetyl]aminobenzoate
@<TRIPOS>ATOM
      1 C1         -3.1036   -6.7183   -2.3692 C.3       1 <0>        -0.1513
      2 C2         -2.7894   -5.2896   -1.9210 C.3       1 <0>         0.0525
      3 O1         -2.7761   -4.4254   -3.0590 O.3       1 <0>        -0.3013
      4 C3         -2.5104   -3.1110   -2.8331 C.ar      1 <0>         0.1136
      5 C4         -2.2629   -2.6640   -1.5450 C.ar      1 <0>        -0.1515
      6 C5         -1.9990   -1.3264   -1.3163 C.ar      1 <0>        -0.0641
      7 C6         -1.9702   -0.4340   -2.3718 C.ar      1 <0>        -0.1050
      8 C7         -2.2107   -0.8743   -3.6600 C.ar      1 <0>        -0.1721
      9 C8         -2.4814   -2.2127   -3.8955 C.ar      1 <0>         0.0944
     10 O2         -2.7187   -2.6474   -5.1621 O.3       1 <0>        -0.2778
     11 C9         -2.6731   -1.6693   -6.2029 C.3       1 <0>         0.0426
     12 C10        -2.9583   -2.3307   -7.5266 C.2       1 <0>         0.5155
     13 O3         -3.1790   -3.5223   -7.5740 O.2       1 <0>        -0.4806
     14 N1         -2.9683   -1.5980   -8.6577 N.am      1 <0>        -0.6723
     15 C11        -3.1227   -2.2252   -9.8932 C.ar      1 <0>         0.1874
     16 C12        -2.5909   -3.4945  -10.0984 C.ar      1 <0>        -0.1371
     17 C13        -2.7456   -4.1188  -11.3154 C.ar      1 <0>        -0.0368
     18 C14        -3.4288   -3.4715  -12.3493 C.ar      1 <0>        -0.1460
     19 C15        -3.9571   -2.1940  -12.1412 C.ar      1 <0>        -0.0306
     20 C16        -3.8032   -1.5779  -10.9199 C.ar      1 <0>        -0.1575
     21 C17        -3.5920   -4.1349  -13.6561 C.2       1 <0>         0.5104
     22 O4         -4.1864   -3.5712  -14.5536 O.2       1 <0>        -0.5071
     23 O5         -3.0822   -5.3663  -13.8550 O.3       1 <0>        -0.3551
     24 C18        -3.2808   -5.9581  -15.1659 C.3       1 <0>         0.0366
     25 C19        -1.7361   -0.8411    0.0860 C.3       1 <0>         0.0954
     26 H1         -1.7960   -1.6833    0.7753 H         1 <0>         0.0985
     27 C20        -2.7696    0.1842    0.4606 C.2       1 <0>        -0.2593
     28 C21        -2.4657    1.5046    0.4356 C.2       1 <0>         0.4254
     29 O6         -1.2472    1.9350    0.0708 O.3       1 <0>        -0.2394
     30 C22        -0.1929    1.1012    0.1449 C.2       1 <0>         0.1658
     31 C23        -0.3554   -0.2345    0.1553 C.2       1 <0>        -0.2596
     32 C24         0.7482   -1.1058    0.2324 C.2       1 <0>         0.4011
     33 O7          0.5627   -2.3062    0.2162 O.2       1 <0>        -0.4473
     34 C25         2.1528   -0.5766    0.3349 C.3       1 <0>        -0.1607
     35 C26         2.1158    0.7968    1.0140 C.3       1 <0>        -0.1146
     36 C27         1.1883    1.7100    0.2103 C.3       1 <0>        -0.0802
     37 N2         -3.4247    2.4215    0.7880 N.pl3     1 <0>        -0.8294
     38 C28        -4.0827   -0.2368    0.8467 C.1       1 <0>         0.2704
     39 N3         -5.1244   -0.5708    1.1530 N.1       1 <0>        -0.4366
     40 H2         -4.0797   -6.7407   -2.8539 H         1 <0>         0.0664
     41 H3         -2.3412   -7.0546   -3.0719 H         1 <0>         0.0672
     42 H4         -3.1138   -7.3775   -1.5012 H         1 <0>         0.0783
     43 H5         -1.8134   -5.2672   -1.4364 H         1 <0>         0.0642
     44 H6         -3.5518   -4.9533   -1.2183 H         1 <0>         0.0602
     45 H7         -2.2801   -3.3599   -0.7193 H         1 <0>         0.1366
     46 H8         -1.7598    0.6095   -2.1896 H         1 <0>         0.1199
     47 H9         -2.1873   -0.1752   -4.4828 H         1 <0>         0.1338
     48 H10        -3.4218   -0.9005   -6.0120 H         1 <0>         0.0966
     49 H11        -1.6832   -1.2137   -6.2302 H         1 <0>         0.0985
     50 H12        -2.8680   -0.6343   -8.6122 H         1 <0>         0.4161
     51 H13        -2.0594   -3.9921   -9.3007 H         1 <0>         0.1444
     52 H14        -2.3362   -5.1057  -11.4727 H         1 <0>         0.1438
     53 H15        -4.4857   -1.6912  -12.9375 H         1 <0>         0.1437
     54 H16        -4.2114   -0.5912  -10.7583 H         1 <0>         0.1386
     55 H17        -2.8224   -6.9468  -15.1915 H         1 <0>         0.1042
     56 H18        -4.3485   -6.0474  -15.3663 H         1 <0>         0.0646
     57 H19        -2.8206   -5.3246  -15.9242 H         1 <0>         0.0646
     58 H20         2.7081   -1.2077    0.8765 H         1 <0>         0.0914
     59 H21         2.5810   -0.4813   -0.6629 H         1 <0>         0.1058
     60 H22         1.7366    0.6927    2.0306 H         1 <0>         0.0787
     61 H23         3.1200    1.2201    1.0393 H         1 <0>         0.0963
     62 H24         1.5809    1.8280   -0.7997 H         1 <0>         0.1092
     63 H25         1.1323    2.6855    0.6933 H         1 <0>         0.1019
     64 H26        -4.3089    2.1216    1.0513 H         1 <0>         0.4267
     65 H27        -3.2183    3.3691    0.7737 H         1 <0>         0.4120
@<TRIPOS>BOND
     1    1    2 1
     2    1   40 1
     3    1   41 1
     4    1   42 1
     5    2    3 1
     6    2   43 1
     7    2   44 1
     8    3    4 1
     9    4    9 ar
    10    4    5 ar
    11    5    6 ar
    12    5   45 1
    13    6    7 ar
    14    6   25 1
    15    7    8 ar
    16    7   46 1
    17    8    9 ar
    18    8   47 1
    19    9   10 1
    20   10   11 1
    21   11   12 1
    22   11   48 1
    23   11   49 1
    24   12   13 2
    25   12   14 am
    26   14   15 1
    27   14   50 1
    28   15   20 ar
    29   15   16 ar
    30   16   17 ar
    31   16   51 1
    32   17   18 ar
    33   17   52 1
    34   18   19 ar
    35   18   21 1
    36   19   20 ar
    37   19   53 1
    38   20   54 1
    39   21   22 2
    40   21   23 1
    41   23   24 1
    42   24   55 1
    43   24   56 1
    44   24   57 1
    45   25   26 1
    46   25   31 1
    47   25   27 1
    48   27   28 2
    49   27   38 1
    50   28   29 1
    51   28   37 1
    52   29   30 1
    53   30   36 1
    54   30   31 2
    55   31   32 1
    56   32   33 2
    57   32   34 1
    58   34   35 1
    59   34   58 1
    60   34   59 1
    61   35   36 1
    62   35   60 1
    63   35   61 1
    64   36   62 1
    65   36   63 1
    66   37   64 1
    67   37   65 1
    68   38   39 3
@<TRIPOS>MOLECULE
ZINC12702720
   69    73     0     0     0
SMALL
USER_CHARGES
(2R)-N-cyclopentyl-2-[[2-[5-(4-fluorophenyl)tetrazol-2-yl]acetyl]-[[(2R)-tetrahydrofuran-2-yl]methyl]amino]-2-(4-hydroxyphenyl)acetamide
@<TRIPOS>ATOM
      1 C1          4.7016   -0.6717   -0.4877 C.ar      1 <0>        -0.0510
      2 C2          5.7770   -1.3569    0.0396 C.ar      1 <0>        -0.1555
      3 C3          7.0674   -1.0175   -0.3333 C.ar      1 <0>         0.1170
      4 C4          7.2837    0.0069   -1.2406 C.ar      1 <0>        -0.1548
      5 C5          6.2136    0.6936   -1.7767 C.ar      1 <0>        -0.0485
      6 C6          4.9144    0.3556   -1.4044 C.ar      1 <0>        -0.0227
      7 C7          3.7603    1.0920   -1.9782 C.2       1 <0>         0.2105
      8 N1          3.8122    2.0993   -2.8612 N.2       1 <0>        -0.2687
      9 N2          2.5972    2.4555   -3.1076 N.2       1 <0>        -0.0483
     10 N3          1.7980    1.7233   -2.4131 N.pl3     1 <0>        -0.1226
     11 N4          2.4849    0.8822   -1.7192 N.2       1 <0>        -0.2823
     12 C8          0.3366    1.8258   -2.4159 C.3       1 <0>         0.1060
     13 C9         -0.1010    2.7948   -1.3479 C.2       1 <0>         0.5175
     14 O1          0.7263    3.3454   -0.6528 O.2       1 <0>        -0.4976
     15 N5         -1.4115    3.0536   -1.1689 N.am      1 <0>        -0.5939
     16 C10        -2.4106    2.3930   -2.0125 C.3       1 <0>         0.1041
     17 C11        -2.8287    1.0702   -1.3672 C.3       1 <0>         0.0583
     18 H1         -2.9733    1.2100   -0.2959 H         1 <0>         0.1015
     19 C12        -4.1340    0.5630   -2.0103 C.3       1 <0>        -0.1371
     20 C13        -3.7629   -0.8304   -2.5738 C.3       1 <0>        -0.1580
     21 C14        -2.5046   -1.1915   -1.7440 C.3       1 <0>         0.0495
     22 O2         -1.8211    0.0722   -1.6012 O.3       1 <0>        -0.3890
     23 C15        -1.8370    3.9955   -0.1306 C.3       1 <0>         0.1813
     24 H2         -1.4443    4.9869   -0.3565 H         1 <0>         0.1024
     25 C16        -1.3120    3.5400    1.2066 C.ar      1 <0>        -0.1001
     26 C17        -1.2578    2.1907    1.5034 C.ar      1 <0>        -0.0745
     27 C18        -0.7717    1.7703    2.7263 C.ar      1 <0>        -0.1432
     28 C19        -0.3480    2.7038    3.6610 C.ar      1 <0>         0.1157
     29 C20        -0.4087    4.0573    3.3629 C.ar      1 <0>        -0.1441
     30 C21        -0.8907    4.4724    2.1366 C.ar      1 <0>        -0.0810
     31 O3          0.1254    2.2930    4.8669 O.3       1 <0>        -0.4982
     32 C22        -3.3424    4.0493   -0.0874 C.2       1 <0>         0.5190
     33 O4         -3.9864    3.0216   -0.0973 O.2       1 <0>        -0.5161
     34 N6         -3.9731    5.2393   -0.0379 N.am      1 <0>        -0.7144
     35 C23        -5.4365    5.2916    0.0041 C.3       1 <0>         0.1402
     36 C24        -6.0072    5.2760   -1.4291 C.3       1 <0>        -0.1340
     37 C25        -7.2278    6.2283   -1.3615 C.3       1 <0>        -0.1252
     38 C26        -6.7339    7.3517   -0.4164 C.3       1 <0>        -0.1253
     39 C27        -5.8986    6.6105    0.6480 C.3       1 <0>        -0.1326
     40 F1          8.1178   -1.6877    0.1889 F         1 <0>        -0.1347
     41 H3          3.6962   -0.9341   -0.1934 H         1 <0>         0.1428
     42 H4          5.6127   -2.1563    0.7469 H         1 <0>         0.1435
     43 H5          8.2912    0.2681   -1.5290 H         1 <0>         0.1447
     44 H6          6.3831    1.4919   -2.4842 H         1 <0>         0.1466
     45 H7         -0.0968    0.8457   -2.2170 H         1 <0>         0.1701
     46 H8         -0.0008    2.1814   -3.3895 H         1 <0>         0.1432
     47 H9         -3.2828    3.0385   -2.1160 H         1 <0>         0.1039
     48 H10        -1.9838    2.1983   -2.9964 H         1 <0>         0.0876
     49 H11        -4.9196    0.4742   -1.2600 H         1 <0>         0.0810
     50 H12        -4.4468    1.2288   -2.8146 H         1 <0>         0.0754
     51 H13        -4.5644   -1.5475   -2.3970 H         1 <0>         0.0809
     52 H14        -3.5243   -0.7696   -3.6356 H         1 <0>         0.0771
     53 H15        -2.7884   -1.5867   -0.7686 H         1 <0>         0.0626
     54 H16        -1.8833   -1.9082   -2.2811 H         1 <0>         0.0939
     55 H17        -1.5919    1.4646    0.7771 H         1 <0>         0.1311
     56 H18        -0.7258    0.7161    2.9562 H         1 <0>         0.1292
     57 H19        -0.0791    4.7860    4.0887 H         1 <0>         0.1313
     58 H20        -0.9382    5.5260    1.9040 H         1 <0>         0.1262
     59 H21        -0.5549    2.2109    5.5492 H         1 <0>         0.3916
     60 H22        -3.4580    6.0613   -0.0300 H         1 <0>         0.4027
     61 H23        -5.8241    4.4441    0.5695 H         1 <0>         0.0948
     62 H24        -5.2691    5.6518   -2.1377 H         1 <0>         0.0702
     63 H25        -6.3225    4.2692   -1.7032 H         1 <0>         0.0723
     64 H26        -8.0920    5.7180   -0.9364 H         1 <0>         0.0702
     65 H27        -7.4639    6.6290   -2.3473 H         1 <0>         0.0704
     66 H28        -7.5797    7.8590    0.0477 H         1 <0>         0.0700
     67 H29        -6.1137    8.0647   -0.9595 H         1 <0>         0.0680
     68 H30        -6.5111    6.4031    1.5255 H         1 <0>         0.0768
     69 H31        -5.0340    7.2113    0.9301 H         1 <0>         0.0721
@<TRIPOS>BOND
     1    1    6 ar
     2    1    2 ar
     3    1   41 1
     4    2    3 ar
     5    2   42 1
     6    3    4 ar
     7    3   40 1
     8    4    5 ar
     9    4   43 1
    10    5    6 ar
    11    5   44 1
    12    6    7 1
    13    7   11 2
    14    7    8 1
    15    8    9 2
    16    9   10 1
    17   10   11 1
    18   10   12 1
    19   12   13 1
    20   12   45 1
    21   12   46 1
    22   13   14 2
    23   13   15 am
    24   15   16 1
    25   15   23 1
    26   16   17 1
    27   16   47 1
    28   16   48 1
    29   17   18 1
    30   17   22 1
    31   17   19 1
    32   19   20 1
    33   19   49 1
    34   19   50 1
    35   20   21 1
    36   20   51 1
    37   20   52 1
    38   21   22 1
    39   21   53 1
    40   21   54 1
    41   23   24 1
    42   23   25 1
    43   23   32 1
    44   25   30 ar
    45   25   26 ar
    46   26   27 ar
    47   26   55 1
    48   27   28 ar
    49   27   56 1
    50   28   29 ar
    51   28   31 1
    52   29   30 ar
    53   29   57 1
    54   30   58 1
    55   31   59 1
    56   32   33 2
    57   32   34 am
    58   34   35 1
    59   34   60 1
    60   35   39 1
    61   35   36 1
    62   35   61 1
    63   36   37 1
    64   36   62 1
    65   36   63 1
    66   37   38 1
    67   37   64 1
    68   37   65 1
    69   38   39 1
    70   38   66 1
    71   38   67 1
    72   39   68 1
    73   39   69 1
@<TRIPOS>MOLECULE
ZINC20907405
   54    57     0     0     0
SMALL
USER_CHARGES
2-[[5-[(N'E)-N'-[(2-hydroxy-1-naphthyl)methylene]hydrazino]-4H-1,2,4-triazol-3-yl]sulfanyl]-N-[5-(2-methoxyethylsulfanyl)-1,3,4-thiadiazol-2-yl]acetamide
@<TRIPOS>ATOM
      1 C1        -10.1580  -10.8488    0.0355 C.3       1 <0>         0.0285
      2 O1         -9.2079   -9.7815    0.0332 O.3       1 <0>        -0.3836
      3 C2         -7.8464  -10.2153    0.0184 C.3       1 <0>         0.0762
      4 C3         -6.9225   -8.9957    0.0172 C.3       1 <0>        -0.1224
      5 S1         -5.1942   -9.5464   -0.0015 S.3       1 <0>         0.0657
      6 C4         -4.2690   -8.0469   -0.0011 C.2       1 <0>         0.0107
      7 N1         -4.6853   -6.7890    0.0096 N.2       1 <0>        -0.2523
      8 N2         -3.8785   -5.8196    0.0074 N.2       1 <0>        -0.2728
      9 C5         -2.5678   -5.9981   -0.0056 C.2       1 <0>         0.2916
     10 S2         -2.4975   -7.7872   -0.0233 S.3       1 <0>         0.0475
     11 N3         -1.5368   -5.0618   -0.0105 N.am      1 <0>        -0.6215
     12 C6         -1.8226   -3.7447   -0.0006 C.2       1 <0>         0.5347
     13 O2         -2.9777   -3.3749    0.0124 O.2       1 <0>        -0.4494
     14 C7         -0.7071   -2.7315   -0.0059 C.3       1 <0>        -0.1605
     15 S3         -1.4092   -1.0590    0.0098 S.3       1 <0>         0.1208
     16 C8          0.0021   -0.0041    0.0020 C.2       1 <0>         0.2084
     17 N4         -0.0164    1.3618    0.0095 N.2       1 <0>        -0.5545
     18 C9          1.2781    1.8021   -0.0005 C.2       1 <0>         0.5461
     19 N5          2.0630    0.7519   -0.0136 N.pl3     1 <0>        -0.4744
     20 N6          1.2549   -0.3925   -0.0120 N.2       1 <0>        -0.3320
     21 N7          1.6887    3.1268    0.0027 N.pl3     1 <0>        -0.5628
     22 N8          3.0549    3.4367   -0.0087 N.2       1 <0>        -0.2278
     23 C10         3.4399    4.6789   -0.0057 C.2       1 <0>         0.1253
     24 C11         4.8731    5.0040   -0.0176 C.ar      1 <0>        -0.1162
     25 C12         5.3234    6.3946   -0.0144 C.ar      1 <0>         0.0151
     26 C13         4.4122    7.4575    0.0001 C.ar      1 <0>        -0.1259
     27 C14         4.8734    8.7403    0.0029 C.ar      1 <0>        -0.0913
     28 C15         6.2400    9.0090   -0.0079 C.ar      1 <0>        -0.1316
     29 C16         7.1533    7.9992   -0.0216 C.ar      1 <0>        -0.0853
     30 C17         6.7137    6.6643   -0.0259 C.ar      1 <0>        -0.0902
     31 C18         7.6269    5.5955   -0.0393 C.ar      1 <0>        -0.0414
     32 C19         7.1906    4.3077   -0.0414 C.ar      1 <0>        -0.2022
     33 C20         5.8332    3.9924   -0.0263 C.ar      1 <0>         0.2072
     34 O3          5.4426    2.6916   -0.0243 O.3       1 <0>        -0.4827
     35 H1        -11.1764  -10.4331    0.0471 H         1 <0>         0.0927
     36 H2        -10.0064  -11.4727    0.9287 H         1 <0>         0.0457
     37 H3        -10.0226  -11.4622   -0.8675 H         1 <0>         0.0457
     38 H4         -7.6464  -10.8259    0.9112 H         1 <0>         0.0638
     39 H5         -7.6626  -10.8155   -0.8849 H         1 <0>         0.0638
     40 H6         -7.1225   -8.3851   -0.8757 H         1 <0>         0.1101
     41 H7         -7.1063   -8.3955    0.9205 H         1 <0>         0.1102
     42 H8         -0.4893   -5.3972   -0.0225 H         1 <0>         0.4610
     43 H9         -0.0785   -2.8736    0.8855 H         1 <0>         0.1326
     44 H10        -0.0957   -2.8640   -0.9107 H         1 <0>         0.1326
     45 H11         0.9417    3.9342    0.0142 H         1 <0>         0.4325
     46 H12         2.6928    5.4862    0.0057 H         1 <0>         0.1259
     47 H13         3.3501    7.2622    0.0086 H         1 <0>         0.1278
     48 H14         4.1695    9.5593    0.0141 H         1 <0>         0.1271
     49 H15         6.5805   10.0339   -0.0050 H         1 <0>         0.1259
     50 H16         8.2099    8.2229   -0.0292 H         1 <0>         0.1301
     51 H17         8.6874    5.7997   -0.0476 H         1 <0>         0.1339
     52 H18         7.9157    3.5074   -0.0522 H         1 <0>         0.1334
     53 H19         6.1968    1.8909   -0.0311 H         1 <0>         0.4311
     54 H20         3.1553    0.8817   -0.0233 H         1 <0>         0.4770
@<TRIPOS>BOND
     1    1    2 1
     2    1   35 1
     3    1   36 1
     4    1   37 1
     5    2    3 1
     6    3    4 1
     7    3   38 1
     8    3   39 1
     9    4    5 1
    10    4   40 1
    11    4   41 1
    12    5    6 1
    13    6   10 1
    14    6    7 2
    15    7    8 1
    16    8    9 2
    17    9   10 1
    18    9   11 1
    19   11   12 am
    20   11   42 1
    21   12   13 2
    22   12   14 1
    23   14   15 1
    24   14   43 1
    25   14   44 1
    26   15   16 1
    27   16   20 2
    28   16   17 1
    29   17   18 2
    30   18   19 1
    31   18   21 1
    32   19   20 1
    33   19   54 1
    34   21   22 1
    35   21   45 1
    36   22   23 2
    37   23   24 1
    38   23   46 1
    39   24   33 ar
    40   24   25 ar
    41   25   30 ar
    42   25   26 ar
    43   26   27 ar
    44   26   47 1
    45   27   28 ar
    46   27   48 1
    47   28   29 ar
    48   28   49 1
    49   29   30 ar
    50   29   50 1
    51   30   31 ar
    52   31   32 ar
    53   31   51 1
    54   32   33 ar
    55   32   52 1
    56   33   34 1
    57   34   53 1
@<TRIPOS>MOLECULE
ZINC36568085
   67    69     0     0     0
SMALL
USER_CHARGES

@<TRIPOS>ATOM
      1 C1          1.2904    1.7882   -3.1650 C.3       1 <0>        -0.1408
      2 C2          1.1548    0.4589   -2.4197 C.3       1 <0>        -0.1331
      3 C3          0.0527    0.5757   -1.3649 C.3       1 <0>         0.1259
      4 N1         -0.1344   -0.7206   -0.7086 N.am      1 <0>        -0.6050
      5 C4         -0.9790   -1.7423   -1.3322 C.3       1 <0>         0.1665
      6 H1         -0.4054   -2.6606   -1.4581 H         1 <0>         0.1287
      7 C5         -2.1729   -2.0123   -0.4532 C.ar      1 <0>        -0.0651
      8 C6         -2.5606   -1.0782    0.4895 C.ar      1 <0>        -0.1143
      9 C7         -3.6551   -1.3211    1.2983 C.ar      1 <0>        -0.0927
     10 C8         -4.3665   -2.5027    1.1649 C.ar      1 <0>         0.0879
     11 C9         -3.9766   -3.4426    0.2157 C.ar      1 <0>         0.1248
     12 C10        -2.8815   -3.1908   -0.5951 C.ar      1 <0>        -0.2192
     13 O1         -4.6716   -4.6037    0.0809 O.3       1 <0>        -0.3003
     14 C11        -4.1616   -5.5609   -0.8495 C.3       1 <0>         0.0193
     15 O2         -5.4432   -2.7434    1.9600 O.3       1 <0>        -0.4837
     16 C12        -1.4469   -1.2538   -2.6789 C.2       1 <0>         0.5076
     17 O3         -0.8611   -0.3474   -3.2322 O.2       1 <0>        -0.4762
     18 N2         -2.5164   -1.8241   -3.2683 N.am      1 <0>        -0.7009
     19 C13        -2.9713   -1.3492   -4.5774 C.3       1 <0>        -0.3614
     20 S1         -2.2460   -2.3818   -5.8807 S.o2      1 <0>         2.4695
     21 O4         -2.7277   -1.9733   -7.1536 O.2       1 <0>        -0.9281
     22 O5         -0.8536   -2.5508   -5.6531 O.2       1 <0>        -0.9166
     23 C14        -2.9401   -3.9817   -5.6295 C.ar      1 <0>        -0.6666
     24 C15        -2.3067   -4.8873   -4.7991 C.ar      1 <0>        -0.0220
     25 C16        -2.8513   -6.1425   -4.6021 C.ar      1 <0>        -0.1433
     26 C17        -4.0294   -6.4920   -5.2352 C.ar      1 <0>        -0.0255
     27 C18        -4.6633   -5.5860   -6.0649 C.ar      1 <0>        -0.1386
     28 C19        -4.1210   -4.3293   -6.2585 C.ar      1 <0>        -0.0180
     29 C20        -4.6225   -7.8607   -5.0212 C.3       1 <0>        -0.1284
     30 C21         0.4705   -0.9732    0.4690 C.2       1 <0>         0.5677
     31 O6          1.4304   -0.3113    0.8137 O.2       1 <0>        -0.4913
     32 C22        -0.0321   -2.0530    1.3398 C.ar      1 <0>        -0.1717
     33 C23        -0.7166   -3.1390    0.7886 C.ar      1 <0>        -0.0922
     34 C24        -1.1830   -4.1443    1.6072 C.ar      1 <0>        -0.1383
     35 C25        -0.9764   -4.0837    2.9759 C.ar      1 <0>        -0.0684
     36 C26        -0.3016   -3.0163    3.5338 C.ar      1 <0>        -0.1590
     37 C27         0.1795   -1.9980    2.7241 C.ar      1 <0>         0.1707
     38 O7          0.8473   -0.9511    3.2702 O.3       1 <0>        -0.4787
     39 H2          0.3456    2.0298   -3.6519 H         1 <0>         0.0546
     40 H3          1.5466    2.5769   -2.4576 H         1 <0>         0.0468
     41 H4          2.0756    1.7051   -3.9164 H         1 <0>         0.0524
     42 H5          0.8987   -0.3298   -3.1271 H         1 <0>         0.0920
     43 H6          2.0996    0.2174   -1.9327 H         1 <0>         0.0514
     44 H7          0.3378    1.3211   -0.6225 H         1 <0>         0.0732
     45 H8         -0.8784    0.8780   -1.8443 H         1 <0>         0.0896
     46 H9         -2.0069   -0.1569    0.5945 H         1 <0>         0.1310
     47 H10        -3.9554   -0.5901    2.0344 H         1 <0>         0.1393
     48 H11        -2.5790   -3.9170   -1.3350 H         1 <0>         0.1376
     49 H12        -4.7348   -6.4847   -0.7715 H         1 <0>         0.1043
     50 H13        -4.2467   -5.1649   -1.8615 H         1 <0>         0.0560
     51 H14        -3.1143   -5.7631   -0.6254 H         1 <0>         0.0593
     52 H15        -6.2809   -2.4287    1.5936 H         1 <0>         0.3896
     53 H16        -2.9849   -2.5490   -2.8257 H         1 <0>         0.4106
     54 H17        -4.0584   -1.4101   -4.6284 H         1 <0>         0.1476
     55 H18        -2.6584   -0.3145   -4.7174 H         1 <0>         0.1599
     56 H19        -1.3863   -4.6143   -4.3045 H         1 <0>         0.1395
     57 H20        -2.3561   -6.8503   -3.9539 H         1 <0>         0.1343
     58 H21        -5.5836   -5.8592   -6.5597 H         1 <0>         0.1348
     59 H22        -4.6182   -3.6202   -6.9038 H         1 <0>         0.1428
     60 H23        -5.3017   -7.8332   -4.1691 H         1 <0>         0.0809
     61 H24        -5.1711   -8.1626   -5.9134 H         1 <0>         0.0747
     62 H25        -3.8238   -8.5764   -4.8262 H         1 <0>         0.0746
     63 H26        -0.8802   -3.1902   -0.2777 H         1 <0>         0.1575
     64 H27        -1.7124   -4.9832    1.1801 H         1 <0>         0.1224
     65 H28        -1.3458   -4.8760    3.6101 H         1 <0>         0.1287
     66 H29        -0.1445   -2.9762    4.6015 H         1 <0>         0.1342
     67 H30         0.2783   -0.2129    3.5279 H         1 <0>         0.3913
@<TRIPOS>BOND
     1    1    2 1
     2    1   39 1
     3    1   40 1
     4    1   41 1
     5    2    3 1
     6    2   42 1
     7    2   43 1
     8    3    4 1
     9    3   44 1
    10    3   45 1
    11    4    5 1
    12    4   30 am
    13    5    6 1
    14    5    7 1
    15    5   16 1
    16    7   12 ar
    17    7    8 ar
    18    8    9 ar
    19    8   46 1
    20    9   10 ar
    21    9   47 1
    22   10   11 ar
    23   10   15 1
    24   11   12 ar
    25   11   13 1
    26   12   48 1
    27   13   14 1
    28   14   49 1
    29   14   50 1
    30   14   51 1
    31   15   52 1
    32   16   17 2
    33   16   18 am
    34   18   19 1
    35   18   53 1
    36   19   20 1
    37   19   54 1
    38   19   55 1
    39   20   21 2
    40   20   22 2
    41   20   23 1
    42   23   28 ar
    43   23   24 ar
    44   24   25 ar
    45   24   56 1
    46   25   26 ar
    47   25   57 1
    48   26   27 ar
    49   26   29 1
    50   27   28 ar
    51   27   58 1
    52   28   59 1
    53   29   60 1
    54   29   61 1
    55   29   62 1
    56   30   31 2
    57   30   32 1
    58   32   37 ar
    59   32   33 ar
    60   33   34 ar
    61   33   63 1
    62   34   35 ar
    63   34   64 1
    64   35   36 ar
    65   35   65 1
    66   36   37 ar
    67   36   66 1
    68   37   38 1
    69   38   67 1
@<TRIPOS>MOLECULE
ZINC12644430
   66    68     0     0     0
SMALL
USER_CHARGES

@<TRIPOS>ATOM
      1 C1         -0.0106    1.5324    0.0075 C.3       1 <0>        -0.1532
      2 C2          0.0137    0.0026    0.0050 C.3       1 <0>         0.0631
      3 O1          0.6768   -0.4613   -1.1728 O.3       1 <0>        -0.3585
      4 C3          0.7840   -1.7966   -1.3293 C.2       1 <0>         0.5382
      5 O2          0.3266   -2.5461   -0.4881 O.2       1 <0>        -0.4891
      6 C4          1.4522   -2.3446   -2.5140 C.2       1 <0>        -0.0448
      7 C5          1.6221   -3.6688   -2.7946 C.2       1 <0>        -0.0067
      8 C6          2.3109   -3.7451   -4.0261 C.2       1 <0>        -0.2169
      9 C7          2.5337   -2.4467   -4.4478 C.2       1 <0>         0.1341
     10 N1          2.0110   -1.6101   -3.5379 N.pl3     1 <0>        -0.5104
     11 H1          2.0260   -0.6417   -3.5912 H         1 <0>         0.4316
     12 C8          3.2388   -2.0405   -5.7162 C.3       1 <0>        -0.1032
     13 C9          2.7157   -4.9747   -4.7278 C.2       1 <0>         0.5549
     14 O3          1.9639   -5.4917   -5.5307 O.2       1 <0>        -0.4883
     15 O4          3.9197   -5.5269   -4.4797 O.3       1 <0>        -0.3206
     16 C10         4.2466   -6.7193   -5.1963 C.3       1 <0>         0.0473
     17 C11         5.6206   -7.1877   -4.7916 C.2       1 <0>         0.5167
     18 O5          6.2572   -6.5621   -3.9704 O.2       1 <0>        -0.4852
     19 N2          6.1420   -8.3019   -5.3422 N.am      1 <0>        -0.6724
     20 C12         7.4539   -8.6836   -5.0400 C.ar      1 <0>         0.2010
     21 C13         8.2464   -9.2800   -6.0120 C.ar      1 <0>        -0.1632
     22 C14         9.5408   -9.6557   -5.7106 C.ar      1 <0>         0.0022
     23 C15        10.0479   -9.4385   -4.4426 C.ar      1 <0>        -0.6562
     24 C16         9.2611   -8.8453   -3.4723 C.ar      1 <0>         0.0021
     25 C17         7.9679   -8.4617   -3.7692 C.ar      1 <0>        -0.1419
     26 S1         11.6998   -9.9192   -4.0621 S.o2      1 <0>         2.6435
     27 O6         11.7547  -10.1049   -2.6543 O.2       1 <0>        -0.9805
     28 O7         12.0452  -10.9474   -4.9801 O.2       1 <0>        -0.9732
     29 N3         12.6774   -8.6280   -4.4077 N.2       1 <0>        -0.9948
     30 C18        13.9536   -8.7140   -4.2171 C.2       1 <0>         0.5684
     31 C19        14.5619  -10.0072   -3.6795 C.3       1 <0>        -0.1679
     32 C20        15.3605  -10.6298   -4.8045 C.3       1 <0>        -0.1196
     33 C21        16.8087  -10.1406   -4.8668 C.3       1 <0>        -0.1203
     34 C22        16.9415   -8.6320   -4.6558 C.3       1 <0>        -0.1511
     35 C23        15.8930   -7.8311   -5.3970 C.3       1 <0>         0.1283
     36 N4         14.7335   -7.6871   -4.4917 N.pl3     1 <0>        -0.7282
     37 C24         1.1628   -4.8300   -1.9510 C.3       1 <0>        -0.1031
     38 H2          1.0110    1.9121   -0.0077 H         1 <0>         0.0669
     39 H3         -0.5438    1.8887   -0.8739 H         1 <0>         0.0667
     40 H4         -0.5164    1.8863    0.9059 H         1 <0>         0.0829
     41 H5          0.5469   -0.3537    0.8864 H         1 <0>         0.0714
     42 H6         -1.0079   -0.3771    0.0202 H         1 <0>         0.0712
     43 H7          2.5119   -1.9516   -6.5235 H         1 <0>         0.0916
     44 H8          3.7337   -1.0811   -5.5656 H         1 <0>         0.0835
     45 H9          3.9809   -2.7951   -5.9770 H         1 <0>         0.0892
     46 H10         3.5158   -7.4941   -4.9649 H         1 <0>         0.1078
     47 H11         4.2331   -6.5151   -6.2669 H         1 <0>         0.1077
     48 H12         5.6079   -8.8392   -5.9479 H         1 <0>         0.4186
     49 H13         7.8509   -9.4502   -7.0025 H         1 <0>         0.1398
     50 H14        10.1576  -10.1198   -6.4660 H         1 <0>         0.1459
     51 H15         9.6599   -8.6774   -2.4828 H         1 <0>         0.1448
     52 H16         7.3557   -7.9938   -3.0125 H         1 <0>         0.1511
     53 H17        15.2175   -9.7866   -2.8371 H         1 <0>         0.1188
     54 H18        13.7699  -10.6874   -3.3662 H         1 <0>         0.0832
     55 H19        15.3628  -11.7119   -4.6738 H         1 <0>         0.0828
     56 H20        14.8720  -10.3961   -5.7505 H         1 <0>         0.0707
     57 H21        17.3857  -10.6543   -4.0978 H         1 <0>         0.0696
     58 H22        17.2234  -10.3960   -5.8420 H         1 <0>         0.0707
     59 H23        16.8563   -8.4188   -3.5903 H         1 <0>         0.0737
     60 H24        17.9279   -8.3165   -4.9956 H         1 <0>         0.0780
     61 H25        16.2891   -6.8487   -5.6543 H         1 <0>         0.0988
     62 H26        15.5919   -8.3600   -6.3012 H         1 <0>         0.0783
     63 H27        14.5458   -6.8228   -4.0934 H         1 <0>         0.4144
     64 H28         0.1549   -5.1192   -2.2489 H         1 <0>         0.0804
     65 H29         1.8395   -5.6726   -2.0933 H         1 <0>         0.0680
     66 H30         1.1617   -4.5381   -0.9008 H         1 <0>         0.0911
@<TRIPOS>BOND
     1    1    2 1
     2    1   38 1
     3    1   39 1
     4    1   40 1
     5    2    3 1
     6    2   41 1
     7    2   42 1
     8    3    4 1
     9    4    5 2
    10    4    6 1
    11    6   10 1
    12    6    7 2
    13    7    8 1
    14    7   37 1
    15    8    9 2
    16    8   13 1
    17    9   10 1
    18    9   12 1
    19   10   11 1
    20   12   43 1
    21   12   44 1
    22   12   45 1
    23   13   14 2
    24   13   15 1
    25   15   16 1
    26   16   17 1
    27   16   46 1
    28   16   47 1
    29   17   18 2
    30   17   19 am
    31   19   20 1
    32   19   48 1
    33   20   25 ar
    34   20   21 ar
    35   21   22 ar
    36   21   49 1
    37   22   23 ar
    38   22   50 1
    39   23   24 ar
    40   23   26 1
    41   24   25 ar
    42   24   51 1
    43   25   52 1
    44   26   27 2
    45   26   28 2
    46   26   29 1
    47   29   30 2
    48   30   36 1
    49   30   31 1
    50   31   32 1
    51   31   53 1
    52   31   54 1
    53   32   33 1
    54   32   55 1
    55   32   56 1
    56   33   34 1
    57   33   57 1
    58   33   58 1
    59   34   35 1
    60   34   59 1
    61   34   60 1
    62   35   36 1
    63   35   61 1
    64   35   62 1
    65   36   63 1
    66   37   64 1
    67   37   65 1
    68   37   66 1
@<TRIPOS>MOLECULE
ZINC20074702
   50    52     0     0     0
SMALL
USER_CHARGES
2-[(5Z)-3-carbamoyl-5-[[5-hydroxy-3-methyl-1-(p-tolyl)pyrazol-4-yl]methylene]-4-methyl-2,6-dioxo-1-pyridyl]acetic acid
@<TRIPOS>ATOM
      1 C1         -0.5235   14.2302   -2.7322 C.3       1 <0>        -0.1157
      2 C2         -1.0743   12.9949   -2.0677 C.ar      1 <0>        -0.0892
      3 C3         -2.2657   13.0603   -1.3687 C.ar      1 <0>        -0.1077
      4 C4         -2.7731   11.9299   -0.7586 C.ar      1 <0>        -0.1046
      5 C5         -2.0856   10.7268   -0.8477 C.ar      1 <0>         0.1457
      6 C6         -0.8867   10.6656   -1.5454 C.ar      1 <0>        -0.1071
      7 C7         -0.3871   11.7983   -2.1578 C.ar      1 <0>        -0.1020
      8 N1         -2.5978    9.5781   -0.2299 N.pl3     1 <0>        -0.3125
      9 C8         -2.4917    8.3252   -0.7121 C.2       1 <0>         0.3937
     10 C9         -3.1326    7.4734    0.2012 C.2       1 <0>        -0.3372
     11 C10        -3.6371    8.3368    1.2730 C.2       1 <0>         0.1531
     12 N2         -3.2956    9.5585    0.9800 N.2       1 <0>        -0.2827
     13 C11        -4.4054    7.8920    2.4907 C.3       1 <0>        -0.0816
     14 C12        -3.2684    6.0774    0.1045 C.2       1 <0>         0.1150
     15 C13        -2.1348    5.2610    0.1396 C.2       1 <0>        -0.2023
     16 C14        -2.2447    3.8768   -0.1043 C.2       1 <0>         0.0385
     17 C15        -1.0953    3.0974   -0.0603 C.2       1 <0>        -0.2231
     18 C16         0.1917    3.7252    0.2418 C.2       1 <0>         0.5679
     19 O1          1.1985    3.0422    0.2855 O.2       1 <0>        -0.4952
     20 N3          0.2761    5.0481    0.4660 N.am      1 <0>        -0.5269
     21 C17        -0.8145    5.8347    0.4315 C.2       1 <0>         0.5569
     22 O2         -0.7067    7.0281    0.6438 O.2       1 <0>        -0.4849
     23 C18         1.5817    5.6440    0.7604 C.3       1 <0>         0.0555
     24 C19         1.8209    5.6201    2.2481 C.2       1 <0>         0.4614
     25 O3          0.9864    5.1532    2.9867 O.co2     1 <0>        -0.6266
     26 O4          2.9609    6.1175    2.7527 O.co2     1 <0>        -0.7620
     27 C20        -1.1723    1.6515   -0.3094 C.2       1 <0>         0.5945
     28 O5         -1.1619    0.8718    0.6246 O.2       1 <0>        -0.5290
     29 N4         -1.2545    1.1888   -1.5726 N.am      1 <0>        -0.8697
     30 C21        -3.5834    3.2542   -0.4065 C.3       1 <0>        -0.1323
     31 O6         -1.8826    7.9569   -1.8605 O.3       1 <0>        -0.4788
     32 H1         -1.2025   15.0768   -2.5526 H         1 <0>         0.0658
     33 H2         -0.4338   14.0553   -3.8145 H         1 <0>         0.0704
     34 H3          0.4678   14.4601   -2.3145 H         1 <0>         0.0719
     35 H4         -2.7998   13.9965   -1.2995 H         1 <0>         0.1300
     36 H5         -3.7034   11.9817   -0.2126 H         1 <0>         0.1331
     37 H6         -0.3475    9.7322   -1.6127 H         1 <0>         0.1362
     38 H7          0.5435   11.7504   -2.7038 H         1 <0>         0.1313
     39 H8         -4.6466    8.7671    3.1120 H         1 <0>         0.0800
     40 H9         -3.7940    7.1865    3.0725 H         1 <0>         0.0893
     41 H10        -5.3364    7.3976    2.1764 H         1 <0>         0.0850
     42 H11        -4.2670    5.6278    0.0012 H         1 <0>         0.1458
     43 H12         2.3701    5.0687    0.2530 H         1 <0>         0.0994
     44 H13         1.5990    6.6841    0.4029 H         1 <0>         0.0985
     45 H14        -1.3122    0.1063   -1.7592 H         1 <0>         0.4228
     46 H15        -1.2639    1.8937   -2.4170 H         1 <0>         0.4187
     47 H16        -3.4575    2.1730   -0.5654 H         1 <0>         0.0776
     48 H17        -4.0040    3.7117   -1.3141 H         1 <0>         0.0877
     49 H18        -4.2658    3.4235    0.4395 H         1 <0>         0.0908
     50 H19        -1.8581    6.8973   -2.1547 H         1 <0>         0.4546
@<TRIPOS>BOND
     1    1    2 1
     2    1   32 1
     3    1   33 1
     4    1   34 1
     5    2    7 ar
     6    2    3 ar
     7    3    4 ar
     8    3   35 1
     9    4    5 ar
    10    4   36 1
    11    5    6 ar
    12    5    8 1
    13    6    7 ar
    14    6   37 1
    15    7   38 1
    16    8   12 1
    17    8    9 1
    18    9   10 2
    19    9   31 1
    20   10   11 1
    21   10   14 1
    22   11   12 2
    23   11   13 1
    24   13   39 1
    25   13   40 1
    26   13   41 1
    27   14   15 2
    28   14   42 1
    29   15   21 1
    30   15   16 1
    31   16   17 2
    32   16   30 1
    33   17   18 1
    34   17   27 1
    35   18   19 2
    36   18   20 am
    37   20   21 am
    38   20   23 1
    39   21   22 2
    40   23   24 1
    41   23   43 1
    42   23   44 1
    43   24   25 2
    44   24   26 1
    45   27   28 2
    46   27   29 am
    47   29   45 1
    48   29   46 1
    49   30   47 1
    50   30   48 1
    51   30   49 1
    52   31   50 1
@<TRIPOS>MOLECULE
ZINC34255655
   54    57     0     0     0
SMALL
USER_CHARGES

@<TRIPOS>ATOM
      1 C1          1.1449    1.4967   -0.8547 C.3       1 <0>        -0.1434
      2 C2          1.1199   -0.0098   -0.8265 C.2       1 <0>         0.4585
      3 O1          2.1075   -0.6245   -0.4998 O.2       1 <0>        -0.4918
      4 O2          0.0001   -0.6691   -1.1644 O.3       1 <0>        -0.2982
      5 C3          0.0518   -2.0260   -1.2238 C.ar      1 <0>         0.1034
      6 C4          0.0300   -2.7740   -0.0556 C.ar      1 <0>        -0.1170
      7 C5          0.0822   -4.1530   -0.1187 C.ar      1 <0>        -0.0639
      8 C6          0.1560   -4.7878   -1.3448 C.ar      1 <0>        -0.1248
      9 C7          0.1782   -4.0446   -2.5105 C.ar      1 <0>        -0.0935
     10 C8          0.1205   -2.6655   -2.4530 C.ar      1 <0>        -0.1048
     11 C9          0.2127   -6.2923   -1.4108 C.3       1 <0>         0.1064
     12 H1          0.5492   -6.7058   -0.4600 H         1 <0>         0.1507
     13 C10        -1.1465   -6.8666   -1.7975 C.3       1 <0>        -0.1483
     14 H2         -1.6261   -6.3030   -2.5977 H         1 <0>         0.1690
     15 C11        -0.6384   -8.2907   -2.2409 C.3       1 <0>        -0.1372
     16 H3         -0.1343   -8.6681   -1.3513 H         1 <0>         0.1079
     17 C12        -1.8593   -9.0601   -2.2326 C.2       1 <0>         0.5806
     18 O3         -2.1601   -9.9754   -2.9683 O.2       1 <0>        -0.3929
     19 N1         -2.6059   -8.5293   -1.2101 N.am      1 <0>        -0.5462
     20 C13        -2.1175   -7.3221   -0.7544 C.2       1 <0>         0.5639
     21 O4         -2.4038   -6.7489    0.2747 O.2       1 <0>        -0.4281
     22 C14        -3.7547   -9.1413   -0.6891 C.ar      1 <0>         0.1409
     23 C15        -4.1913  -10.3543   -1.2046 C.ar      1 <0>        -0.0907
     24 C16        -5.3232  -10.9547   -0.6894 C.ar      1 <0>        -0.0881
     25 C17        -6.0218  -10.3489    0.3390 C.ar      1 <0>        -0.0680
     26 C18        -5.5898   -9.1408    0.8540 C.ar      1 <0>        -0.0273
     27 C19        -4.4547   -8.5384    0.3469 C.ar      1 <0>        -0.0884
     28 N2         -6.3405   -8.4954    1.9543 N.pl3     1 <0>         0.0345
     29 O5         -7.3309   -9.0246    2.4022 O.2       1 <0>        -0.1548
     30 O6         -5.9633   -7.4389    2.4052 O.3       1 <0>        -0.1519
     31 C20         0.4969   -7.9900   -3.1220 C.3       1 <0>         0.0549
     32 N3          1.1055   -6.7404   -2.5290 N.4       1 <0>        -0.4880
     33 C21         1.5167   -9.1299   -3.0861 C.3       1 <0>        -0.1923
     34 C22         2.7268   -8.7472   -3.8987 C.2       1 <0>         0.4868
     35 O7          2.7695   -7.6632   -4.4551 O.co2     1 <0>        -0.6703
     36 O8          3.6630   -9.5216   -3.9998 O.co2     1 <0>        -0.6841
     37 C23         0.0198   -7.7543   -4.5320 C.2       1 <0>         0.5238
     38 O9          0.2292   -6.6831   -5.0753 O.co2     1 <0>        -0.6524
     39 O10        -0.5755   -8.6348   -5.1293 O.co2     1 <0>        -0.6368
     40 H4          1.4604    1.8364   -1.8411 H         1 <0>         0.1100
     41 H5          0.1477    1.8807   -0.6399 H         1 <0>         0.0974
     42 H6          1.8448    1.8626   -0.1034 H         1 <0>         0.1068
     43 H7         -0.0273   -2.2786    0.9023 H         1 <0>         0.1366
     44 H8          0.0656   -4.7358    0.7904 H         1 <0>         0.1416
     45 H9          0.2363   -4.5428   -3.4670 H         1 <0>         0.1545
     46 H10         0.1335   -2.0856   -3.3640 H         1 <0>         0.1442
     47 H11        -3.6463  -10.8277   -2.0080 H         1 <0>         0.1722
     48 H12        -5.6634  -11.8981   -1.0903 H         1 <0>         0.1590
     49 H13        -6.9067  -10.8203    0.7403 H         1 <0>         0.1583
     50 H14        -4.1149   -7.5971    0.7529 H         1 <0>         0.1778
     51 H15         1.1528   -6.0235   -3.2375 H         1 <0>         0.4384
     52 H16         1.8161   -9.3172   -2.0548 H         1 <0>         0.0679
     53 H17         1.0688  -10.0315   -3.5039 H         1 <0>         0.1103
     54 H18         2.0296   -6.9334   -2.1729 H         1 <0>         0.4268
@<TRIPOS>BOND
     1    1    2 1
     2    1   40 1
     3    1   41 1
     4    1   42 1
     5    2    3 2
     6    2    4 1
     7    4    5 1
     8    5   10 ar
     9    5    6 ar
    10    6    7 ar
    11    6   43 1
    12    7    8 ar
    13    7   44 1
    14    8    9 ar
    15    8   11 1
    16    9   10 ar
    17    9   45 1
    18   10   46 1
    19   11   12 1
    20   11   32 1
    21   11   13 1
    22   13   14 1
    23   13   20 1
    24   13   15 1
    25   15   16 1
    26   15   17 1
    27   15   31 1
    28   17   18 2
    29   17   19 am
    30   19   20 am
    31   19   22 1
    32   20   21 2
    33   22   27 ar
    34   22   23 ar
    35   23   24 ar
    36   23   47 1
    37   24   25 ar
    38   24   48 1
    39   25   26 ar
    40   25   49 1
    41   26   27 ar
    42   26   28 1
    43   27   50 1
    44   28   29 2
    45   28   30 1
    46   31   32 1
    47   31   33 1
    48   31   37 1
    49   32   51 1
    50   32   54 1
    51   33   34 1
    52   33   52 1
    53   33   53 1
    54   34   35 2
    55   34   36 1
    56   37   38 2
    57   37   39 1
@<TRIPOS>MOLECULE
ZINC38604825
   53    56     0     0     0
SMALL
USER_CHARGES

@<TRIPOS>ATOM
      1 C1          0.3338    1.2454   -0.0451 C.3       1 <0>         0.0898
      2 N1          0.2297   -0.2138    0.0329 N.am      1 <0>        -0.5462
      3 C2         -0.9927   -0.8066   -0.0201 C.2       1 <0>         0.5176
      4 C3         -1.0845   -2.1903    0.0539 C.2       1 <0>        -0.4602
      5 C4          0.0802   -2.9360    0.1808 C.2       1 <0>         0.5029
      6 O1          0.0221   -4.2679    0.2537 O.2       1 <0>        -0.6345
      7 N2          1.2802   -2.2987    0.2296 N.am      1 <0>        -0.5456
      8 C5          1.3448   -0.9571    0.1509 C.2       1 <0>         0.6986
      9 O2          2.4285   -0.4073    0.1914 O.2       1 <0>        -0.5660
     10 C6          2.5128   -3.0791    0.3633 C.3       1 <0>         0.0883
     11 C7         -2.4272   -2.8722   -0.0020 C.3       1 <0>         0.1285
     12 H1         -3.2175   -2.1233    0.0508 H         1 <0>         0.1133
     13 C8         -2.5590   -3.8367    1.1783 C.3       1 <0>        -0.1090
     14 H2         -1.7691   -4.5860    1.1263 H         1 <0>         0.1622
     15 C9         -2.4398   -3.0583    2.4906 C.3       1 <0>         0.3280
     16 H3         -1.5863   -2.3826    2.4358 H         1 <0>         0.1038
     17 N3         -3.6620   -2.2834    2.7124 N.am      1 <0>        -0.6276
     18 C10        -4.8614   -2.7676    2.3513 C.2       1 <0>         0.7179
     19 O3         -5.8643   -2.1462    2.6432 O.2       1 <0>        -0.5644
     20 N4         -4.9793   -3.9226    1.6754 N.am      1 <0>        -0.5702
     21 C11        -3.9036   -4.5176    1.1250 C.2       1 <0>         0.5369
     22 O4         -4.0150   -5.5988    0.5881 O.2       1 <0>        -0.4866
     23 C12        -6.2982   -4.5446    1.5343 C.3       1 <0>         0.0846
     24 C13        -3.5754   -0.9613    3.3376 C.3       1 <0>         0.0950
     25 O5         -2.2537   -3.9737    3.5720 O.3       1 <0>        -0.5647
     26 C14        -2.5476   -3.6394   -1.2935 C.2       1 <0>         0.3222
     27 N5         -3.6491   -3.7941   -1.9685 N.2       1 <0>        -0.5033
     28 C15        -3.4037   -4.5363   -3.0788 C.ar      1 <0>         0.0547
     29 C16        -4.2040   -4.9931   -4.1288 C.ar      1 <0>        -0.0681
     30 C17        -3.6517   -5.7406   -5.1304 C.ar      1 <0>        -0.1372
     31 C18        -2.3001   -6.0531   -5.1174 C.ar      1 <0>        -0.1176
     32 C19        -1.4911   -5.6134   -4.0909 C.ar      1 <0>        -0.1079
     33 C20        -2.0344   -4.8526   -3.0651 C.ar      1 <0>         0.0399
     34 N6         -1.5193   -4.2660   -1.9264 N.pl3     1 <0>        -0.5681
     35 O6         -2.0959   -0.0644   -0.1419 O.3       1 <0>        -0.6198
     36 H4          1.3824    1.5382    0.0080 H         1 <0>         0.0896
     37 H5         -0.0924    1.5902   -0.9872 H         1 <0>         0.0713
     38 H6         -0.2111    1.6935    0.7858 H         1 <0>         0.0725
     39 H7          2.8918   -3.3322   -0.6269 H         1 <0>         0.0618
     40 H8          3.2587   -2.4914    0.8985 H         1 <0>         0.0811
     41 H9          2.3050   -3.9942    0.9177 H         1 <0>         0.0924
     42 H10        -7.0452   -3.9306    2.0373 H         1 <0>         0.0943
     43 H11        -6.5491   -4.6285    0.4769 H         1 <0>         0.0744
     44 H12        -6.2816   -5.5375    1.9837 H         1 <0>         0.0680
     45 H13        -3.4487   -0.2021    2.5659 H         1 <0>         0.0701
     46 H14        -4.4903   -0.7628    3.8959 H         1 <0>         0.0812
     47 H15        -2.7229   -0.9355    4.0163 H         1 <0>         0.0674
     48 H16        -2.1702   -3.5491    4.4367 H         1 <0>         0.3794
     49 H17        -0.5959   -4.2971   -1.6310 H         1 <0>         0.4276
     50 H18        -5.2575   -4.7560   -4.1487 H         1 <0>         0.1220
     51 H19        -4.2738   -6.0922   -5.9403 H         1 <0>         0.1213
     52 H20        -1.8787   -6.6449   -5.9165 H         1 <0>         0.1221
     53 H21        -0.4396   -5.8600   -4.0851 H         1 <0>         0.1163
@<TRIPOS>BOND
     1    1    2 1
     2    1   36 1
     3    1   37 1
     4    1   38 1
     5    2    8 am
     6    2    3 1
     7    3    4 2
     8    3   35 1
     9    4    5 1
    10    4   11 1
    11    5    6 2
    12    5    7 am
    13    7    8 am
    14    7   10 1
    15    8    9 2
    16   10   39 1
    17   10   40 1
    18   10   41 1
    19   11   12 1
    20   11   13 1
    21   11   26 1
    22   13   14 1
    23   13   21 1
    24   13   15 1
    25   15   16 1
    26   15   17 1
    27   15   25 1
    28   17   18 am
    29   17   24 1
    30   18   19 2
    31   18   20 am
    32   20   21 am
    33   20   23 1
    34   21   22 2
    35   23   42 1
    36   23   43 1
    37   23   44 1
    38   24   45 1
    39   24   46 1
    40   24   47 1
    41   25   48 1
    42   26   27 2
    43   26   34 1
    44   27   28 1
    45   28   29 ar
    46   28   33 ar
    47   29   30 ar
    48   29   50 1
    49   30   31 ar
    50   30   51 1
    51   31   32 ar
    52   31   52 1
    53   32   33 ar
    54   32   53 1
    55   33   34 1
    56   34   49 1
@<TRIPOS>MOLECULE
ZINC33931431
   53    55     0     0     0
SMALL
USER_CHARGES

@<TRIPOS>ATOM
      1 C1          0.0155    1.5370    0.1946 C.3       1 <0>        -0.1519
      2 C2          0.0224    0.0073    0.1641 C.3       1 <0>        -0.1202
      3 C3          0.7924   -0.5234    1.3750 C.3       1 <0>        -0.1382
      4 C4          0.7993   -2.0531    1.3446 C.3       1 <0>         0.1043
      5 N1          1.5366   -2.5613    2.5040 N.am      1 <0>        -0.5958
      6 C5          2.8880   -2.8029    2.4990 C.2       1 <0>         0.5961
      7 O1          3.7011   -2.4495    1.6722 O.2       1 <0>        -0.4661
      8 C6          3.1252   -3.5720    3.6985 C.3       1 <0>        -0.2165
      9 H1          2.6863   -4.5364    3.4429 H         1 <0>         0.1354
     10 C7          4.2272   -3.9591    4.5906 C.3       1 <0>         0.1334
     11 H2          4.7901   -4.7888    4.1631 H         1 <0>         0.1588
     12 N2          3.5462   -4.3849    5.8577 N.4       1 <0>        -0.4902
     13 C8          2.0811   -4.1111    5.6963 C.3       1 <0>         0.0374
     14 C9          2.0814   -2.9329    4.6990 C.3       1 <0>        -0.1142
     15 H3          2.3774   -1.9758    5.1285 H         1 <0>         0.1533
     16 C10         0.9542   -2.8400    3.7076 C.2       1 <0>         0.5498
     17 O2         -0.2284   -2.9853    3.9314 O.2       1 <0>        -0.4090
     18 C11         1.3602   -5.3349    5.1275 C.3       1 <0>        -0.1946
     19 C12         1.4706   -6.4803    6.1006 C.2       1 <0>         0.4907
     20 O3          2.0702   -6.3315    7.1518 O.co2     1 <0>        -0.6670
     21 O4          0.9602   -7.5557    5.8369 O.co2     1 <0>        -0.6826
     22 C13         1.4688   -3.6905    7.0075 C.2       1 <0>         0.5293
     23 O5          2.1564   -3.6404    8.0131 O.co2     1 <0>        -0.6588
     24 O6          0.2859   -3.4002    7.0627 O.co2     1 <0>        -0.6378
     25 C14         5.1355   -2.7841    4.8466 C.ar      1 <0>        -0.1117
     26 C15         4.9088   -1.9587    5.9326 C.ar      1 <0>        -0.1460
     27 C16         5.7399   -0.8802    6.1702 C.ar      1 <0>        -0.0692
     28 C17         6.8015   -0.6216    5.3227 C.ar      1 <0>        -0.1822
     29 C18         7.0342   -1.4446    4.2330 C.ar      1 <0>         0.1087
     30 C19         6.2008   -2.5343    3.9972 C.ar      1 <0>         0.1157
     31 O7          6.4285   -3.3484    2.9319 O.3       1 <0>        -0.4834
     32 O8          8.0778   -1.1916    3.3985 O.3       1 <0>        -0.3036
     33 C20         8.8943   -0.0598    3.7055 C.3       1 <0>         0.0240
     34 H4          1.0407    1.9057    0.1633 H         1 <0>         0.0535
     35 H5         -0.5331    1.9151   -0.6681 H         1 <0>         0.0554
     36 H6         -0.4662    1.8800    1.1103 H         1 <0>         0.0554
     37 H7         -1.0029   -0.3614    0.1955 H         1 <0>         0.0665
     38 H8          0.5040   -0.3357   -0.7515 H         1 <0>         0.0648
     39 H9          1.8177   -0.1548    1.3437 H         1 <0>         0.0700
     40 H10         0.3108   -0.1804    2.2907 H         1 <0>         0.0696
     41 H11        -0.2260   -2.4218    1.3759 H         1 <0>         0.0980
     42 H12         1.2809   -2.3961    0.4289 H         1 <0>         0.0921
     43 H13         3.6954   -5.3708    6.0120 H         1 <0>         0.4371
     44 H14         0.3092   -5.0952    4.9662 H         1 <0>         0.1139
     45 H15         1.8179   -5.6182    4.1796 H         1 <0>         0.0609
     46 H16         4.0803   -2.1569    6.5964 H         1 <0>         0.1425
     47 H17         5.5595   -0.2379    7.0195 H         1 <0>         0.1405
     48 H18         7.4490    0.2222    5.5102 H         1 <0>         0.1385
     49 H19         5.9754   -3.0736    2.1230 H         1 <0>         0.3972
     50 H20         9.3343   -0.1867    4.6946 H         1 <0>         0.0578
     51 H21         9.6878    0.0278    2.9633 H         1 <0>         0.1026
     52 H22         8.2836    0.8430    3.6926 H         1 <0>         0.0568
     53 H23         3.9097   -3.8560    6.6362 H         1 <0>         0.4288
@<TRIPOS>BOND
     1    1    2 1
     2    1   34 1
     3    1   35 1
     4    1   36 1
     5    2    3 1
     6    2   37 1
     7    2   38 1
     8    3    4 1
     9    3   39 1
    10    3   40 1
    11    4    5 1
    12    4   41 1
    13    4   42 1
    14    5   16 am
    15    5    6 am
    16    6    7 2
    17    6    8 1
    18    8    9 1
    19    8   14 1
    20    8   10 1
    21   10   11 1
    22   10   12 1
    23   10   25 1
    24   12   13 1
    25   12   43 1
    26   12   53 1
    27   13   14 1
    28   13   18 1
    29   13   22 1
    30   14   15 1
    31   14   16 1
    32   16   17 2
    33   18   19 1
    34   18   44 1
    35   18   45 1
    36   19   20 2
    37   19   21 1
    38   22   23 2
    39   22   24 1
    40   25   30 ar
    41   25   26 ar
    42   26   27 ar
    43   26   46 1
    44   27   28 ar
    45   27   47 1
    46   28   29 ar
    47   28   48 1
    48   29   30 ar
    49   29   32 1
    50   30   31 1
    51   31   49 1
    52   32   33 1
    53   33   50 1
    54   33   51 1
    55   33   52 1
@<TRIPOS>MOLECULE
ZINC48557773
   42    44     0     0     0
SMALL
USER_CHARGES

@<TRIPOS>ATOM
      1 C1         -0.3685    1.4137    0.0539 C.3       1 <0>        -0.0763
      2 C2         -0.4487   -0.0908    0.0195 C.2       1 <0>         0.2618
      3 N1         -0.3888   -0.8356   -1.0511 N.2       1 <0>        -0.4783
      4 C3         -0.4926   -2.1289   -0.7117 C.2       1 <0>         0.2799
      5 N2         -0.6209   -2.2137    0.5961 N.2       1 <0>        -0.2643
      6 N3         -0.5888   -0.8997    1.0907 N.pl3     1 <0>        -0.3509
      7 C4         -0.6866   -0.5056    2.4325 C.ar      1 <0>         0.1521
      8 C5          0.0225    0.5986    2.8861 C.ar      1 <0>        -0.1034
      9 C6         -0.0755    0.9856    4.2081 C.ar      1 <0>        -0.1320
     10 C7         -0.8803    0.2730    5.0813 C.ar      1 <0>         0.0920
     11 C8         -1.5883   -0.8287    4.6308 C.ar      1 <0>        -0.1322
     12 C9         -1.4971   -1.2156    3.3082 C.ar      1 <0>        -0.0784
     13 F1         -0.9745    0.6527    6.3744 F         1 <0>        -0.1377
     14 C10        -0.4675   -3.2716   -1.6515 C.2       1 <0>         0.5672
     15 O1         -0.5823   -4.5352   -1.1830 O.3       1 <0>        -0.6897
     16 N4         -0.3352   -3.0610   -2.9276 N.2       1 <0>        -1.0312
     17 S1         -0.3072   -4.3398   -3.9794 S.o2      1 <0>         2.6842
     18 O2          0.8782   -5.0712   -3.6980 O.2       1 <0>        -1.0075
     19 O3         -1.5976   -4.9330   -3.9320 O.2       1 <0>        -1.0035
     20 C11        -0.1170   -3.6768   -5.6008 C.2       1 <0>        -0.7031
     21 C12        -1.1516   -3.2986   -6.4622 C.2       1 <0>        -0.0420
     22 C13        -0.5651   -2.8352   -7.6206 C.2       1 <0>        -0.0789
     23 N5          0.7989   -2.9315   -7.4622 N.pl3     1 <0>        -0.4085
     24 C14         1.0575   -3.4374   -6.2317 C.2       1 <0>         0.1371
     25 C15         1.8038   -2.5454   -8.4558 C.3       1 <0>         0.0627
     26 C16        -1.2668   -2.3319   -8.8063 C.2       1 <0>         0.6027
     27 O4         -0.6351   -1.8523   -9.7293 O.2       1 <0>        -0.5589
     28 N6         -2.6111   -2.4007   -8.8736 N.am      1 <0>        -0.8431
     29 H1          0.6729    1.7199    0.1532 H         1 <0>         0.0909
     30 H2         -0.7804    1.8207   -0.8696 H         1 <0>         0.0999
     31 H3         -0.9401    1.7887    0.9029 H         1 <0>         0.0819
     32 H4          0.6505    1.1544    2.2056 H         1 <0>         0.1446
     33 H5          0.4762    1.8442    4.5614 H         1 <0>         0.1455
     34 H6         -2.2152   -1.3834    5.3133 H         1 <0>         0.1450
     35 H7         -2.0528   -2.0721    2.9562 H         1 <0>         0.1476
     36 H8         -2.2105   -3.3587   -6.2585 H         1 <0>         0.1564
     37 H9          2.0396   -3.6224   -5.8223 H         1 <0>         0.1870
     38 H10         2.1252   -1.5209   -8.2684 H         1 <0>         0.0791
     39 H11         2.6615   -3.2142   -8.3838 H         1 <0>         0.0844
     40 H12         1.3724   -2.6140   -9.4545 H         1 <0>         0.1035
     41 H13        -3.1195   -2.7150   -8.1096 H         1 <0>         0.4073
     42 H14        -3.0703   -2.1359   -9.6860 H         1 <0>         0.4072
@<TRIPOS>BOND
     1    1    2 1
     2    1   29 1
     3    1   30 1
     4    1   31 1
     5    2    6 1
     6    2    3 2
     7    3    4 1
     8    4    5 2
     9    4   14 1
    10    5    6 1
    11    6    7 1
    12    7   12 ar
    13    7    8 ar
    14    8    9 ar
    15    8   32 1
    16    9   10 ar
    17    9   33 1
    18   10   11 ar
    19   10   13 1
    20   11   12 ar
    21   11   34 1
    22   12   35 1
    23   14   15 1
    24   14   16 2
    25   16   17 1
    26   17   18 2
    27   17   19 2
    28   17   20 1
    29   20   24 2
    30   20   21 1
    31   21   22 2
    32   21   36 1
    33   22   23 1
    34   22   26 1
    35   23   24 1
    36   23   25 1
    37   24   37 1
    38   25   38 1
    39   25   39 1
    40   25   40 1
    41   26   27 2
    42   26   28 am
    43   28   41 1
    44   28   42 1
@<TRIPOS>MOLECULE
ZINC12833516
   71    76     0     0     0
SMALL
USER_CHARGES
3-[[1,3-benzodioxol-5-ylmethyl-[(1-cyclohexyltetrazol-5-yl)methyl]amino]methyl]-6-ethoxy-1H-quinolin-2-one
@<TRIPOS>ATOM
      1 C1         14.5863   -5.4014   -3.6548 C.3       1 <0>        -0.1555
      2 C2         13.1681   -4.8523   -3.8226 C.3       1 <0>         0.0512
      3 O1         12.5342   -4.7716   -2.5444 O.3       1 <0>        -0.3096
      4 C3         11.2594   -4.2998   -2.5163 C.ar      1 <0>         0.1126
      5 C4         10.6339   -3.9218   -3.7023 C.ar      1 <0>        -0.1250
      6 C5          9.3432   -3.4418   -3.6930 C.ar      1 <0>        -0.1209
      7 C6          8.6520   -3.3300   -2.4910 C.ar      1 <0>         0.1659
      8 C7          9.2801   -3.7107   -1.2905 C.ar      1 <0>        -0.1148
      9 C8         10.5914   -4.1973   -1.3129 C.ar      1 <0>        -0.0871
     10 C9          8.5408   -3.5887   -0.0326 C.2       1 <0>         0.0578
     11 C10         7.2722   -3.1113   -0.0700 C.2       1 <0>        -0.2719
     12 C11         6.6854   -2.7485   -1.3011 C.2       1 <0>         0.5416
     13 O2          5.5419   -2.3266   -1.3127 O.2       1 <0>        -0.5351
     14 N1          7.3579   -2.8513   -2.4607 N.am      1 <0>        -0.6160
     15 H1          6.9258   -2.5889   -3.2886 H         1 <0>         0.4255
     16 C12         6.4840   -2.9734    1.2071 C.3       1 <0>         0.0622
     17 C13         5.5519   -1.3127    2.7024 C.3       1 <0>         0.0414
     18 C14         4.2046   -1.2609    2.0293 C.ar      1 <0>        -0.1542
     19 C15         3.3971   -2.3830    2.0149 C.ar      1 <0>        -0.0717
     20 C16         2.1606   -2.3405    1.3984 C.ar      1 <0>        -0.0965
     21 C17         1.7273   -1.1720    0.7933 C.ar      1 <0>         0.0787
     22 C18         2.5404   -0.0414    0.8082 C.ar      1 <0>         0.0464
     23 C19         3.7785   -0.0913    1.4280 C.ar      1 <0>        -0.0766
     24 O3          1.8959    0.9683    0.1538 O.3       1 <0>        -0.3005
     25 C20         0.5141    0.5677    0.0948 C.3       1 <0>         0.2110
     26 O4          0.5732   -0.8706    0.1295 O.3       1 <0>        -0.2976
     27 C21         7.9289   -1.3290    2.2418 C.3       1 <0>         0.0870
     28 C22         8.1336    0.1585    2.3706 C.2       1 <0>         0.0972
     29 N2          8.5637    0.9729    1.4379 N.2       1 <0>        -0.2551
     30 N3          8.6004    2.1616    1.9336 N.2       1 <0>        -0.0523
     31 N4          8.2124    2.1253    3.1606 N.2       1 <0>        -0.0447
     32 N5          7.9159    0.9077    3.4674 N.pl3     1 <0>        -0.2793
     33 C23         7.4334    0.4302    4.7656 C.3       1 <0>         0.1289
     34 C24         6.2138    1.2509    5.1897 C.3       1 <0>        -0.1343
     35 C25         5.7099    0.7523    6.5455 C.3       1 <0>        -0.1154
     36 C26         6.8174    0.9076    7.5897 C.3       1 <0>        -0.1315
     37 C27         8.0370    0.0869    7.1656 C.3       1 <0>        -0.1156
     38 C28         8.5409    0.5855    5.8098 C.3       1 <0>        -0.1317
     39 H2         15.1586   -4.7377   -3.0067 H         1 <0>         0.0690
     40 H3         14.5408   -6.3948   -3.2084 H         1 <0>         0.0693
     41 H4         15.0698   -5.4630   -4.6297 H         1 <0>         0.0842
     42 H5         12.5958   -5.5161   -4.4707 H         1 <0>         0.0669
     43 H6         13.2136   -3.8590   -4.2690 H         1 <0>         0.0668
     44 H7         11.1663   -4.0063   -4.6382 H         1 <0>         0.1470
     45 H8          8.8679   -3.1520   -4.6185 H         1 <0>         0.1463
     46 H9         11.0779   -4.4912   -0.3945 H         1 <0>         0.1506
     47 H10         8.9961   -3.8725    0.9047 H         1 <0>         0.1591
     48 H11         6.8821   -3.6585    1.9555 H         1 <0>         0.1501
     49 H12         5.4378   -3.2121    1.0159 H         1 <0>         0.1535
     50 H13         5.7572   -0.3541    3.1788 H         1 <0>         0.1225
     51 H14         5.5516   -2.1003    3.4559 H         1 <0>         0.1532
     52 H15         3.7332   -3.2948    2.4861 H         1 <0>         0.1487
     53 H16         1.5318   -3.2186    1.3887 H         1 <0>         0.1505
     54 H17         4.4111    0.7840    1.4414 H         1 <0>         0.1342
     55 H18         0.0554    0.9099   -0.8328 H         1 <0>         0.1435
     56 H19        -0.0325    0.9494    0.9572 H         1 <0>         0.0967
     57 H20         8.0234   -1.7950    3.2226 H         1 <0>         0.1603
     58 H21         8.6806   -1.7423    1.5692 H         1 <0>         0.1650
     59 H22         7.1544   -0.6204    4.6855 H         1 <0>         0.1140
     60 H23         6.4929    2.3016    5.2698 H         1 <0>         0.0955
     61 H24         5.4249    1.1403    4.4458 H         1 <0>         0.0731
     62 H25         5.4309   -0.2984    6.4654 H         1 <0>         0.0695
     63 H26         4.8411    1.3370    6.8477 H         1 <0>         0.0837
     64 H27         6.4584    0.5523    8.5557 H         1 <0>         0.0780
     65 H28         7.0964    1.9582    7.6699 H         1 <0>         0.0724
     66 H29         7.7579   -0.9638    7.0855 H         1 <0>         0.0699
     67 H30         8.8259    0.1975    7.9096 H         1 <0>         0.0836
     68 H31         9.4097    0.0008    5.5077 H         1 <0>         0.0775
     69 H32         8.8199    1.6362    5.8899 H         1 <0>         0.0903
     70 N6          6.5849   -1.5762    1.6786 N.4       1 <0>        -0.3984
     71 H33         6.4352   -0.9442    0.8833 H         1 <0>         0.4390
@<TRIPOS>BOND
     1    1    2 1
     2    1   39 1
     3    1   40 1
     4    1   41 1
     5    2    3 1
     6    2   42 1
     7    2   43 1
     8    3    4 1
     9    4    9 ar
    10    4    5 ar
    11    5    6 ar
    12    5   44 1
    13    6    7 ar
    14    6   45 1
    15    7   14 1
    16    7    8 ar
    17    8    9 ar
    18    8   10 1
    19    9   46 1
    20   10   11 2
    21   10   47 1
    22   11   12 1
    23   11   16 1
    24   12   13 2
    25   12   14 am
    26   14   15 1
    27   16   48 1
    28   16   49 1
    29   16   70 1
    30   17   18 1
    31   17   50 1
    32   17   51 1
    33   17   70 1
    34   18   23 ar
    35   18   19 ar
    36   19   20 ar
    37   19   52 1
    38   20   21 ar
    39   20   53 1
    40   21   26 1
    41   21   22 ar
    42   22   23 ar
    43   22   24 1
    44   23   54 1
    45   24   25 1
    46   25   26 1
    47   25   55 1
    48   25   56 1
    49   27   28 1
    50   27   57 1
    51   27   58 1
    52   27   70 1
    53   28   32 1
    54   28   29 2
    55   29   30 1
    56   30   31 2
    57   31   32 1
    58   32   33 1
    59   33   38 1
    60   33   34 1
    61   33   59 1
    62   34   35 1
    63   34   60 1
    64   34   61 1
    65   35   36 1
    66   35   62 1
    67   35   63 1
    68   36   37 1
    69   36   64 1
    70   36   65 1
    71   37   38 1
    72   37   66 1
    73   37   67 1
    74   38   68 1
    75   38   69 1
    76   70   71 1
@<TRIPOS>MOLECULE
ZINC20104205
   69    72     0     0     0
SMALL
USER_CHARGES
3-(3-chloro-4-methoxy-phenyl)-N-[2-[3-(4-methylpiperazin-1-yl)propylamino]-2-oxo-ethyl]-4-oxo-phthalazine-1-carboxamide
@<TRIPOS>ATOM
      1 C1          4.0207   19.4297    0.5411 C.3       1 <0>        -0.0455
      2 N1          3.8975   17.9712    0.4174 N.4       1 <0>        -0.4031
      3 C2          4.3634   17.2978    1.6377 C.3       1 <0>        -0.0001
      4 C3          4.2936   15.7819    1.4391 C.3       1 <0>         0.0240
      5 N2          2.9116   15.3951    1.1226 N.3       1 <0>        -0.5393
      6 C4          2.4457   16.0684   -0.0978 C.3       1 <0>         0.0187
      7 C5          2.5155   17.5844    0.1009 C.3       1 <0>         0.0000
      8 C6          2.7884   13.9365    0.9988 C.3       1 <0>         0.0558
      9 C7          1.3089   13.5547    0.9186 C.3       1 <0>        -0.1302
     10 C8          1.1806   12.0355    0.7898 C.3       1 <0>         0.1218
     11 N3         -0.2360   11.6699    0.7130 N.am      1 <0>        -0.7397
     12 C9         -0.5924   10.3755    0.5950 C.2       1 <0>         0.5131
     13 O1          0.2596    9.5134    0.5524 O.2       1 <0>        -0.5322
     14 C10        -2.0496    9.9994    0.5160 C.3       1 <0>         0.1012
     15 N4         -2.1725    8.5448    0.3926 N.am      1 <0>        -0.7154
     16 C11        -3.3914    7.9764    0.3057 C.2       1 <0>         0.6039
     17 O2         -4.3892    8.6710    0.3297 O.2       1 <0>        -0.5250
     18 C12        -3.5153    6.5109    0.1814 C.2       1 <0>         0.0666
     19 C13        -4.8417    5.8811    0.0859 C.ar      1 <0>        -0.0387
     20 C14        -6.0255    6.6109    0.1080 C.ar      1 <0>        -0.0941
     21 C15        -7.2308    5.9481    0.0138 C.ar      1 <0>        -0.0847
     22 C16        -7.2746    4.5647   -0.1015 C.ar      1 <0>        -0.1109
     23 C17        -6.1134    3.8222   -0.1245 C.ar      1 <0>        -0.0508
     24 C18        -4.8865    4.4721   -0.0312 C.ar      1 <0>        -0.1365
     25 C19        -3.6024    3.7591   -0.0473 C.2       1 <0>         0.5154
     26 O3         -3.5647    2.5463   -0.1459 O.2       1 <0>        -0.4781
     27 N5         -2.4659    4.4793    0.0493 N.am      1 <0>        -0.3075
     28 N6         -2.4442    5.7537    0.1595 N.2       1 <0>        -0.1967
     29 C20        -1.2450    3.7950    0.0340 C.ar      1 <0>         0.0899
     30 C21        -0.2838    4.0668    0.9996 C.ar      1 <0>        -0.0484
     31 C22         0.9200    3.3915    0.9845 C.ar      1 <0>        -0.1880
     32 C23         1.1710    2.4415    0.0050 C.ar      1 <0>         0.1540
     33 C24         0.2113    2.1689   -0.9608 C.ar      1 <0>        -0.0597
     34 C25        -0.9918    2.8477   -0.9499 C.ar      1 <0>        -0.0420
     35 Cl1         0.5261    0.9800   -2.1860 Cl        1 <0>        -0.0377
     36 O4          2.3573    1.7777   -0.0096 O.3       1 <0>        -0.2987
     37 C26         3.2983    2.1083    1.0137 C.3       1 <0>         0.0188
     38 H1          5.0627   19.6909    0.7777 H         1 <0>         0.1250
     39 H2          3.3614   19.7864    1.3462 H         1 <0>         0.1202
     40 H3          3.7302   19.9040   -0.4079 H         1 <0>         0.1250
     41 H4          5.4021   17.5938    1.8460 H         1 <0>         0.1368
     42 H5          3.7229   17.5876    2.4837 H         1 <0>         0.1351
     43 H6          4.9560   15.4897    0.6109 H         1 <0>         0.0621
     44 H7          4.6149   15.2760    2.3615 H         1 <0>         0.1246
     45 H8          3.0863   15.7786   -0.9438 H         1 <0>         0.0620
     46 H9          1.4070   15.7723   -0.3062 H         1 <0>         0.1253
     47 H10         1.8539   17.8775    0.9294 H         1 <0>         0.1350
     48 H11         2.1949   18.0912   -0.8212 H         1 <0>         0.1363
     49 H12         3.3036   13.6011    0.0866 H         1 <0>         0.0517
     50 H13         3.2446   13.4542    1.8759 H         1 <0>         0.0937
     51 H14         0.7937   13.8902    1.8307 H         1 <0>         0.0858
     52 H15         0.8528   14.0369    0.0414 H         1 <0>         0.0720
     53 H16         1.6959   11.7001   -0.1223 H         1 <0>         0.0685
     54 H17         1.6367   11.5533    1.6670 H         1 <0>         0.0716
     55 H18        -1.0087   12.4518    0.7516 H         1 <0>         0.4271
     56 H19        -2.5648   10.3348    1.4282 H         1 <0>         0.1049
     57 H20        -2.5057   10.4817   -0.3611 H         1 <0>         0.1042
     58 H21        -1.2699    7.9165    0.3709 H         1 <0>         0.4475
     59 H22        -6.0008    7.6869    0.1974 H         1 <0>         0.1711
     60 H23        -8.1521    6.5115    0.0303 H         1 <0>         0.1383
     61 H24        -8.2294    4.0650   -0.1737 H         1 <0>         0.1393
     62 H25        -6.1554    2.7467   -0.2137 H         1 <0>         0.1449
     63 H26        -0.4784    4.8067    1.7619 H         1 <0>         0.1415
     64 H27         1.6670    3.6030    1.7353 H         1 <0>         0.1495
     65 H28        -1.7367    2.6391   -1.7036 H         1 <0>         0.1474
     66 H29         4.2075    1.5025    0.8854 H         1 <0>         0.1092
     67 H30         2.8559    1.9014    1.9993 H         1 <0>         0.0620
     68 H31         3.5558    3.1755    0.9441 H         1 <0>         0.0612
     69 H32         4.5399   17.6485   -0.4151 H         1 <0>         0.4408
@<TRIPOS>BOND
     1    1    2 1
     2    1   38 1
     3    1   39 1
     4    1   40 1
     5    2    7 1
     6    2    3 1
     7    2   69 1
     8    3    4 1
     9    3   41 1
    10    3   42 1
    11    4    5 1
    12    4   43 1
    13    4   44 1
    14    5    6 1
    15    5    8 1
    16    6    7 1
    17    6   45 1
    18    6   46 1
    19    7   47 1
    20    7   48 1
    21    8    9 1
    22    8   49 1
    23    8   50 1
    24    9   10 1
    25    9   51 1
    26    9   52 1
    27   10   11 1
    28   10   53 1
    29   10   54 1
    30   11   12 am
    31   11   55 1
    32   12   13 2
    33   12   14 1
    34   14   15 1
    35   14   56 1
    36   14   57 1
    37   15   16 am
    38   15   58 1
    39   16   17 2
    40   16   18 1
    41   18   28 2
    42   18   19 1
    43   19   24 ar
    44   19   20 ar
    45   20   21 ar
    46   20   59 1
    47   21   22 ar
    48   21   60 1
    49   22   23 ar
    50   22   61 1
    51   23   24 ar
    52   23   62 1
    53   24   25 1
    54   25   26 2
    55   25   27 am
    56   27   28 1
    57   27   29 1
    58   29   34 ar
    59   29   30 ar
    60   30   31 ar
    61   30   63 1
    62   31   32 ar
    63   31   64 1
    64   32   33 ar
    65   32   36 1
    66   33   34 ar
    67   33   35 1
    68   34   65 1
    69   36   37 1
    70   37   66 1
    71   37   67 1
    72   37   68 1
@<TRIPOS>MOLECULE
ZINC38892541
   70    74     0     0     0
SMALL
USER_CHARGES

@<TRIPOS>ATOM
      1 C1         -0.0187    1.5258    0.0104 C.3       1 <0>        -0.1528
      2 C2          0.0021   -0.0041    0.0020 C.3       1 <0>         0.0561
      3 O1         -1.3386   -0.4987    0.0122 O.3       1 <0>        -0.3450
      4 C3         -1.4971   -1.8382    0.0065 C.2       1 <0>         0.5269
      5 O2         -0.5226   -2.5659   -0.0067 O.2       1 <0>        -0.4895
      6 C4         -2.8425   -2.4162    0.0162 C.2       1 <0>        -0.1923
      7 C5         -3.5479   -2.7136   -1.2187 C.2       1 <0>        -0.0611
      8 C6         -4.7773   -3.2421   -1.0392 C.2       1 <0>        -0.2047
      9 S1         -4.9745   -3.3353    0.7161 S.3       1 <0>         0.3016
     10 C7         -3.4952   -2.7084    1.2047 C.2       1 <0>         0.0194
     11 N1         -3.0333   -2.5236    2.4984 N.am      1 <0>        -0.6080
     12 C8         -3.8085   -2.8669    3.5462 C.2       1 <0>         0.5210
     13 O3         -4.9101   -3.3375    3.3570 O.2       1 <0>        -0.4894
     14 C9         -3.3063   -2.6660    4.9527 C.3       1 <0>        -0.1246
     15 H1         -2.3943   -3.2445    5.0997 H         1 <0>         0.1315
     16 C10        -3.0126   -1.1808    5.1836 C.3       1 <0>        -0.1354
     17 C11        -2.5782   -0.9766    6.6378 C.3       1 <0>        -0.1393
     18 C12        -3.6716   -1.5032    7.5699 C.3       1 <0>        -0.0193
     19 N2         -3.8871   -2.9332    7.3183 N.4       1 <0>        -0.3843
     20 C13        -4.3723   -3.1310    5.9472 C.3       1 <0>         0.0104
     21 C14        -4.8812   -3.4514    8.2675 C.3       1 <0>         0.0965
     22 C15        -4.3289   -3.3710    9.6673 C.2       1 <0>         0.2202
     23 N3         -4.4605   -2.3622   10.4805 N.2       1 <0>        -0.4874
     24 C16        -3.8450   -2.6274   11.6470 C.2       1 <0>         0.3162
     25 N4         -3.3128   -3.8230   11.5770 N.2       1 <0>        -0.2976
     26 O4         -3.6249   -4.3271   10.2869 O.3       1 <0>        -0.0852
     27 C17        -3.7792   -1.7180   12.8171 C.ar      1 <0>        -0.1061
     28 C18        -4.3943   -0.4681   12.7656 C.ar      1 <0>        -0.0196
     29 C19        -4.3314    0.3751   13.8546 C.ar      1 <0>        -0.1583
     30 C20        -3.6562   -0.0198   15.0020 C.ar      1 <0>         0.1739
     31 C21        -3.0422   -1.2641   15.0560 C.ar      1 <0>        -0.2134
     32 C22        -3.1070   -2.1139   13.9723 C.ar      1 <0>        -0.0246
     33 O5         -3.5959    0.8130   16.0734 O.3       1 <0>        -0.3065
     34 C23        -2.8853    0.3434   17.2208 C.3       1 <0>         0.0202
     35 C24        -5.7452   -3.6512   -2.1062 C.3       1 <0>        -0.0389
     36 C25        -5.2872   -3.0331   -3.4354 C.3       1 <0>        -0.1163
     37 C26        -3.7901   -3.2996   -3.6162 C.3       1 <0>        -0.1206
     38 C27        -2.9883   -2.4682   -2.6122 C.3       1 <0>        -0.0646
     39 H2          1.0039    1.9031    0.0027 H         1 <0>         0.0837
     40 H3         -0.5459    1.8868   -0.8726 H         1 <0>         0.0701
     41 H4         -0.5289    1.8773    0.9072 H         1 <0>         0.0649
     42 H5          0.5123   -0.3556   -0.8948 H         1 <0>         0.0722
     43 H6          0.5293   -0.3651    0.8851 H         1 <0>         0.0667
     44 H7         -2.1522   -2.1472    2.6497 H         1 <0>         0.4202
     45 H8         -2.2134   -0.8592    4.5159 H         1 <0>         0.1016
     46 H9         -3.9113   -0.5966    4.9862 H         1 <0>         0.0980
     47 H10        -1.6512   -1.5201    6.8206 H         1 <0>         0.0930
     48 H11        -2.4209    0.0857    6.8249 H         1 <0>         0.1249
     49 H12        -3.3656   -1.3591    8.6060 H         1 <0>         0.1347
     50 H13        -4.5979   -0.9588    7.3865 H         1 <0>         0.1434
     51 H14        -5.2841   -2.5526    5.7986 H         1 <0>         0.1508
     52 H15        -4.5832   -4.1881    5.7852 H         1 <0>         0.1512
     53 H16        -5.7917   -2.8559    8.2013 H         1 <0>         0.1792
     54 H17        -5.1079   -4.4898    8.0254 H         1 <0>         0.1739
     55 H18        -4.9192   -0.1603   11.8733 H         1 <0>         0.1447
     56 H19        -4.8075    1.3437   13.8151 H         1 <0>         0.1467
     57 H20        -2.5174   -1.5684   15.9496 H         1 <0>         0.1438
     58 H21        -2.6333   -3.0835   14.0166 H         1 <0>         0.1368
     59 H22        -3.3505   -0.5717   17.5870 H         1 <0>         0.0629
     60 H23        -1.8494    0.1407   16.9488 H         1 <0>         0.0625
     61 H24        -2.9138    1.1032   18.0019 H         1 <0>         0.1101
     62 H25        -5.7599   -4.7377   -2.1920 H         1 <0>         0.0874
     63 H26        -6.7423   -3.2883   -1.8565 H         1 <0>         0.0856
     64 H27        -5.8406   -3.4856   -4.2583 H         1 <0>         0.0790
     65 H28        -5.4674   -1.9582   -3.4195 H         1 <0>         0.0705
     66 H29        -3.5885   -4.3582   -3.4525 H         1 <0>         0.0690
     67 H30        -3.4938   -3.0283   -4.6294 H         1 <0>         0.0753
     68 H31        -3.0762   -1.4105   -2.8605 H         1 <0>         0.0836
     69 H32        -1.9407   -2.7677   -2.6435 H         1 <0>         0.0757
     70 H33        -3.0174   -3.4299    7.4405 H         1 <0>         0.4287
@<TRIPOS>BOND
     1    1    2 1
     2    1   39 1
     3    1   40 1
     4    1   41 1
     5    2    3 1
     6    2   42 1
     7    2   43 1
     8    3    4 1
     9    4    5 2
    10    4    6 1
    11    6   10 2
    12    6    7 1
    13    7   38 1
    14    7    8 2
    15    8    9 1
    16    8   35 1
    17    9   10 1
    18   10   11 1
    19   11   12 am
    20   11   44 1
    21   12   13 2
    22   12   14 1
    23   14   15 1
    24   14   20 1
    25   14   16 1
    26   16   17 1
    27   16   45 1
    28   16   46 1
    29   17   18 1
    30   17   47 1
    31   17   48 1
    32   18   19 1
    33   18   49 1
    34   18   50 1
    35   19   20 1
    36   19   21 1
    37   19   70 1
    38   20   51 1
    39   20   52 1
    40   21   22 1
    41   21   53 1
    42   21   54 1
    43   22   26 1
    44   22   23 2
    45   23   24 1
    46   24   25 2
    47   24   27 1
    48   25   26 1
    49   27   32 ar
    50   27   28 ar
    51   28   29 ar
    52   28   55 1
    53   29   30 ar
    54   29   56 1
    55   30   31 ar
    56   30   33 1
    57   31   32 ar
    58   31   57 1
    59   32   58 1
    60   33   34 1
    61   34   59 1
    62   34   60 1
    63   34   61 1
    64   35   36 1
    65   35   62 1
    66   35   63 1
    67   36   37 1
    68   36   64 1
    69   36   65 1
    70   37   38 1
    71   37   66 1
    72   37   67 1
    73   38   68 1
    74   38   69 1
@<TRIPOS>MOLECULE
ZINC39676604
   77    81     0     0     0
SMALL
USER_CHARGES

@<TRIPOS>ATOM
      1 C1          0.3443    1.4214   -0.2423 C.3       1 <0>        -0.0903
      2 C2          0.2838   -0.0840   -0.2086 C.2       1 <0>         0.0213
      3 C3          0.1958   -0.9082   -1.2788 C.2       1 <0>        -0.1768
      4 C4          0.1694   -2.2187   -0.7458 C.2       1 <0>        -0.0227
      5 N1          0.2408   -2.1022    0.5652 N.2       1 <0>        -0.2619
      6 N2          0.3133   -0.8625    0.8943 N.pl3     1 <0>        -0.2757
      7 C5          0.4101   -0.3648    2.2688 C.3       1 <0>         0.0800
      8 C6          0.0783   -3.4779   -1.5126 C.2       1 <0>         0.6352
      9 O1          0.0171   -3.4473   -2.7264 O.2       1 <0>        -0.5245
     10 N3          0.0630   -4.6607   -0.8667 N.am      1 <0>        -0.6136
     11 C7          0.1219   -4.8983    0.5949 C.3       1 <0>         0.1087
     12 C8         -0.8603   -6.0655    0.8405 C.3       1 <0>        -0.1134
     13 H1         -1.8399   -5.6833    1.1275 H         1 <0>         0.1088
     14 C9         -0.9455   -6.7973   -0.5094 C.3       1 <0>        -0.0716
     15 C10        -0.0231   -6.0177   -1.4575 C.3       1 <0>         0.1100
     16 C11        -2.3773   -6.7704   -1.0357 C.3       1 <0>        -0.1346
     17 C12        -2.4478   -7.5530   -2.3500 C.3       1 <0>        -0.0111
     18 N4         -2.0151   -8.9369   -2.1212 N.4       1 <0>        -0.5044
     19 C13        -0.6080   -8.9594   -1.7040 C.3       1 <0>        -0.0077
     20 C14        -0.4596   -8.2360   -0.3625 C.3       1 <0>        -0.1472
     21 C15        -0.3247   -6.9864    1.9064 C.2       1 <0>         0.5249
     22 O2          0.8725   -7.1226    2.0446 O.2       1 <0>        -0.5143
     23 N5         -1.1762   -7.6588    2.7061 N.am      1 <0>        -0.7212
     24 C16        -0.6555   -8.5540    3.7423 C.3       1 <0>         0.2437
     25 C17        -0.3453   -7.7585    4.9840 C.ar      1 <0>        -0.1367
     26 C18        -1.2017   -6.7520    5.3907 C.ar      1 <0>        -0.0635
     27 C19        -0.9194   -6.0209    6.5283 C.ar      1 <0>        -0.1521
     28 C20         0.2243   -6.2977    7.2632 C.ar      1 <0>         0.1362
     29 C21         1.0817   -7.3084    6.8534 C.ar      1 <0>        -0.2052
     30 C22         0.7922   -8.0400    5.7178 C.ar      1 <0>        -0.0585
     31 O3          0.5045   -5.5797    8.3825 O.3       1 <0>        -0.3162
     32 C23         1.6990   -5.9197    9.0893 C.3       1 <0>         0.0254
     33 C24        -1.6873   -9.6045    4.0634 C.ar      1 <0>        -0.1327
     34 C25        -3.0248   -9.2606    4.1296 C.ar      1 <0>        -0.0739
     35 C26        -3.9726  -10.2215    4.4242 C.ar      1 <0>        -0.1474
     36 C27        -3.5813  -11.5327    4.6532 C.ar      1 <0>         0.1366
     37 C28        -2.2386  -11.8753    4.5858 C.ar      1 <0>        -0.2026
     38 C29        -1.2953  -10.9116    4.2857 C.ar      1 <0>        -0.0621
     39 O4         -4.5116  -12.4797    4.9437 O.3       1 <0>        -0.3151
     40 C30        -4.0365  -13.8087    5.1678 C.3       1 <0>         0.0248
     41 H2          1.3841    1.7419   -0.3077 H         1 <0>         0.0830
     42 H3         -0.2041    1.7878   -1.1101 H         1 <0>         0.0902
     43 H4         -0.1033    1.8234    0.6667 H         1 <0>         0.0735
     44 H5          0.1541   -0.6252   -2.3202 H         1 <0>         0.1639
     45 H6         -0.5911   -0.1994    2.6667 H         1 <0>         0.0891
     46 H7          0.9294   -1.0986    2.8852 H         1 <0>         0.0994
     47 H8          0.9640    0.5739    2.2771 H         1 <0>         0.1002
     48 H9          1.1311   -5.1816    0.8935 H         1 <0>         0.0956
     49 H10        -0.2006   -4.0097    1.1376 H         1 <0>         0.1161
     50 H11        -0.4573   -5.9710   -2.4562 H         1 <0>         0.0896
     51 H12         0.9630   -6.4810   -1.4917 H         1 <0>         0.0850
     52 H13        -3.0427   -7.2279   -0.3036 H         1 <0>         0.0962
     53 H14        -2.6815   -5.7383   -1.2099 H         1 <0>         0.1181
     54 H15        -3.4730   -7.5495   -2.7201 H         1 <0>         0.1394
     55 H16        -1.7944   -7.0853   -3.0865 H         1 <0>         0.1347
     56 H17        -2.5853   -9.3511   -1.3991 H         1 <0>         0.4274
     57 H18        -0.2772   -9.9926   -1.5980 H         1 <0>         0.1385
     58 H19         0.0017   -8.4585   -2.4560 H         1 <0>         0.1336
     59 H20         0.5883   -8.2373   -0.0624 H         1 <0>         0.1272
     60 H21        -1.0560   -8.7461    0.3939 H         1 <0>         0.0979
     61 H22        -2.1337   -7.5499    2.5956 H         1 <0>         0.3990
     62 H23         0.2538   -9.0358    3.3828 H         1 <0>         0.1040
     63 H24        -2.0919   -6.5369    4.8182 H         1 <0>         0.1207
     64 H25        -1.5882   -5.2344    6.8452 H         1 <0>         0.1313
     65 H26         1.9727   -7.5258    7.4238 H         1 <0>         0.1308
     66 H27         1.4570   -8.8299    5.4008 H         1 <0>         0.1244
     67 H28         1.8028   -5.2721    9.9599 H         1 <0>         0.1041
     68 H29         1.6459   -6.9589    9.4137 H         1 <0>         0.0576
     69 H30         2.5594   -5.7873    8.4334 H         1 <0>         0.0573
     70 H31        -3.3289   -8.2397    3.9512 H         1 <0>         0.1244
     71 H32        -5.0171   -9.9523    4.4765 H         1 <0>         0.1341
     72 H33        -1.9315  -12.8953    4.7638 H         1 <0>         0.1327
     73 H34        -0.2504  -11.1787    4.2287 H         1 <0>         0.1277
     74 H35        -3.5232  -14.1664    4.2752 H         1 <0>         0.0569
     75 H36        -3.3445  -13.8100    6.0099 H         1 <0>         0.0593
     76 H37        -4.8794  -14.4634    5.3891 H         1 <0>         0.1054
     77 H38        -2.1202   -9.4660   -2.9739 H         1 <0>         0.4336
@<TRIPOS>BOND
     1    1    2 1
     2    1   41 1
     3    1   42 1
     4    1   43 1
     5    2    6 1
     6    2    3 2
     7    3    4 1
     8    3   44 1
     9    4    5 2
    10    4    8 1
    11    5    6 1
    12    6    7 1
    13    7   45 1
    14    7   46 1
    15    7   47 1
    16    8    9 2
    17    8   10 am
    18   10   15 1
    19   10   11 1
    20   11   12 1
    21   11   48 1
    22   11   49 1
    23   12   13 1
    24   12   14 1
    25   12   21 1
    26   14   20 1
    27   14   15 1
    28   14   16 1
    29   15   50 1
    30   15   51 1
    31   16   17 1
    32   16   52 1
    33   16   53 1
    34   17   18 1
    35   17   54 1
    36   17   55 1
    37   18   19 1
    38   18   56 1
    39   18   77 1
    40   19   20 1
    41   19   57 1
    42   19   58 1
    43   20   59 1
    44   20   60 1
    45   21   22 2
    46   21   23 am
    47   23   24 1
    48   23   61 1
    49   24   25 1
    50   24   33 1
    51   24   62 1
    52   25   30 ar
    53   25   26 ar
    54   26   27 ar
    55   26   63 1
    56   27   28 ar
    57   27   64 1
    58   28   29 ar
    59   28   31 1
    60   29   30 ar
    61   29   65 1
    62   30   66 1
    63   31   32 1
    64   32   67 1
    65   32   68 1
    66   32   69 1
    67   33   38 ar
    68   33   34 ar
    69   34   35 ar
    70   34   70 1
    71   35   36 ar
    72   35   71 1
    73   36   37 ar
    74   36   39 1
    75   37   38 ar
    76   37   72 1
    77   38   73 1
    78   39   40 1
    79   40   74 1
    80   40   75 1
    81   40   76 1
@<TRIPOS>MOLECULE
ZINC20206682
   53    56     0     0     0
SMALL
USER_CHARGES

@<TRIPOS>ATOM
      1 C1          2.2470    1.7561   -2.6709 C.3       1 <0>        -0.1458
      2 C2          1.9981    1.7717   -1.1613 C.3       1 <0>        -0.5794
      3 S1          3.5858    1.8504   -0.2875 S.o2      1 <0>         2.4988
      4 O1          4.3074    0.6405   -0.4736 O.2       1 <0>        -0.8827
      5 O2          4.2081    3.1074   -0.5154 O.2       1 <0>        -0.8911
      6 C3          3.1613    1.8623    1.4226 C.2       1 <0>        -0.1970
      7 N1          3.0913    2.9775    2.0811 N.2       1 <0>        -0.3630
      8 S2          2.6702    2.5126    3.6356 S.3       1 <0>         0.4253
      9 C4          2.6409    0.8592    3.4254 C.2       1 <0>         0.3028
     10 N2          2.4239   -0.1023    4.2945 N.2       1 <0>        -0.5345
     11 C5          2.5164   -1.3858    3.9001 C.2       1 <0>         0.5408
     12 O3          2.1925   -2.2944    4.6476 O.2       1 <0>        -0.4343
     13 C6          3.0215   -1.6690    2.5336 C.2       1 <0>        -0.2813
     14 C7          3.6265   -2.8638    2.2153 C.2       1 <0>         0.0881
     15 C8          3.9553   -3.8228    3.2725 C.ar      1 <0>        -0.1454
     16 C9          3.8115   -5.1989    3.0442 C.ar      1 <0>        -0.0347
     17 C10         4.1208   -6.0916    4.0376 C.ar      1 <0>        -0.1598
     18 C11         4.5759   -5.6347    5.2702 C.ar      1 <0>         0.1654
     19 C12         4.7201   -4.2708    5.5028 C.ar      1 <0>        -0.2132
     20 C13         4.4204   -3.3687    4.5150 C.ar      1 <0>        -0.0087
     21 O4          4.8800   -6.5230    6.2497 O.3       1 <0>        -0.3007
     22 C14         5.3419   -5.9869    7.4912 C.3       1 <0>         0.0587
     23 C15         5.6320   -7.1312    8.4645 C.3       1 <0>         0.0595
     24 O5          6.7159   -7.9176    7.9657 O.3       1 <0>        -0.2962
     25 C16         7.1027   -8.9823    8.7169 C.ar      1 <0>         0.1392
     26 C17         6.4488   -9.2676    9.9064 C.ar      1 <0>        -0.2003
     27 C18         6.8434  -10.3506   10.6680 C.ar      1 <0>        -0.0741
     28 C19         7.8898  -11.1501   10.2461 C.ar      1 <0>        -0.1453
     29 C20         8.5440  -10.8683    9.0613 C.ar      1 <0>        -0.0724
     30 C21         8.1492   -9.7894    8.2921 C.ar      1 <0>        -0.0695
     31 Cl1         8.9661   -9.4400    6.8007 Cl        1 <0>        -0.0545
     32 C22         2.8364   -0.5865    1.5245 C.2       1 <0>         0.4421
     33 N3          2.6347   -0.8146    0.2551 N.2       1 <0>        -0.6536
     34 N4          2.8952    0.7081    2.0782 N.pl3     1 <0>        -0.4651
     35 H1          2.7769    2.6633   -2.9611 H         1 <0>         0.0761
     36 H2          2.8485    0.8851   -2.9310 H         1 <0>         0.0790
     37 H3          1.2930    1.7088   -3.1960 H         1 <0>         0.0934
     38 H4          1.3966    2.6427   -0.9012 H         1 <0>         0.1381
     39 H5          1.4682    0.8644   -0.8711 H         1 <0>         0.1520
     40 H6          3.8587   -3.0942    1.1860 H         1 <0>         0.1462
     41 H7          3.4576   -5.5548    2.0879 H         1 <0>         0.1376
     42 H8          4.0105   -7.1516    3.8630 H         1 <0>         0.1388
     43 H9          5.0735   -3.9221    6.4619 H         1 <0>         0.1331
     44 H10         4.5377   -2.3103    4.6950 H         1 <0>         0.1188
     45 H11         6.2534   -5.4134    7.3227 H         1 <0>         0.0796
     46 H12         4.5760   -5.3362    7.9134 H         1 <0>         0.0913
     47 H13         5.8988   -6.7210    9.4384 H         1 <0>         0.0897
     48 H14         4.7450   -7.7569    8.5644 H         1 <0>         0.0791
     49 H15         5.6319   -8.6433   10.2371 H         1 <0>         0.1364
     50 H16         6.3343  -10.5728   11.5942 H         1 <0>         0.1327
     51 H17         8.1967  -11.9959   10.8434 H         1 <0>         0.1348
     52 H18         9.3615  -11.4939    8.7342 H         1 <0>         0.1405
     53 H19         2.5991   -1.7263   -0.0742 H         1 <0>         0.3847
@<TRIPOS>BOND
     1    1    2 1
     2    1   35 1
     3    1   36 1
     4    1   37 1
     5    2    3 1
     6    2   38 1
     7    2   39 1
     8    3    4 2
     9    3    5 2
    10    3    6 1
    11    6   34 1
    12    6    7 2
    13    7    8 1
    14    8    9 1
    15    9   34 1
    16    9   10 2
    17   10   11 1
    18   11   12 2
    19   11   13 1
    20   13   14 2
    21   13   32 1
    22   14   15 1
    23   14   40 1
    24   15   20 ar
    25   15   16 ar
    26   16   17 ar
    27   16   41 1
    28   17   18 ar
    29   17   42 1
    30   18   19 ar
    31   18   21 1
    32   19   20 ar
    33   19   43 1
    34   20   44 1
    35   21   22 1
    36   22   23 1
    37   22   45 1
    38   22   46 1
    39   23   24 1
    40   23   47 1
    41   23   48 1
    42   24   25 1
    43   25   30 ar
    44   25   26 ar
    45   26   27 ar
    46   26   49 1
    47   27   28 ar
    48   27   50 1
    49   28   29 ar
    50   28   51 1
    51   29   30 ar
    52   29   52 1
    53   30   31 1
    54   32   33 2
    55   32   34 1
    56   33   53 1
@<TRIPOS>MOLECULE
ZINC02344806
   36    37     0     0     0
SMALL
USER_CHARGES
2,2-dibromo-1-methyl-N'-[3-(4-nitrophenyl)prop-2-enoyl]cyclopropane-1-carbohydrazide
@<TRIPOS>ATOM
      1 C1          3.6402    3.1162   -0.7962 C.3       1 <0>        -0.1265
      2 C2          3.6634    1.7960   -0.0233 C.3       1 <0>        -0.1140
      3 C3          4.5342    1.7281    1.2330 C.3       1 <0>        -0.0995
      4 C4          4.9648    0.9916   -0.0380 C.3       1 <0>        -0.0666
      5 Br1         4.8200   -0.9691   -0.0447 Br        1 <0>        -0.0166
      6 Br2         6.4792    1.7334   -1.0486 Br        1 <0>        -0.0440
      7 C5          2.3687    1.0248   -0.0151 C.2       1 <0>         0.5433
      8 O1          2.3852   -0.1878   -0.0217 O.2       1 <0>        -0.4990
      9 N1          1.1926    1.6828   -0.0003 N.am      1 <0>        -0.5150
     10 N2         -0.0111    0.9658    0.0074 N.am      1 <0>        -0.5130
     11 C6         -1.1873    1.6238    0.0165 C.2       1 <0>         0.5499
     12 O2         -1.2038    2.8406    0.0232 O.2       1 <0>        -0.5363
     13 C7         -2.4453    0.8745    0.0184 C.2       1 <0>        -0.1824
     14 C8         -3.6218    1.5326    0.0276 C.2       1 <0>        -0.0217
     15 C9         -4.8866    0.7793    0.0295 C.ar      1 <0>        -0.0230
     16 C10        -4.8718   -0.6189    0.0159 C.ar      1 <0>        -0.1040
     17 C11        -6.0606   -1.3175    0.0227 C.ar      1 <0>        -0.0530
     18 C12        -7.2665   -0.6382    0.0325 C.ar      1 <0>        -0.0369
     19 C13        -7.2894    0.7456    0.0402 C.ar      1 <0>        -0.0539
     20 C14        -6.1090    1.4583    0.0389 C.ar      1 <0>        -0.0932
     21 N3         -8.5382   -1.3956    0.0344 N.pl3     1 <0>         0.0240
     22 O3         -9.6012   -0.8010    0.0427 O.2       1 <0>        -0.1541
     23 O4         -8.5217   -2.6135    0.0277 O.3       1 <0>        -0.1546
     24 H1          2.6579    3.5781   -0.6971 H         1 <0>         0.0750
     25 H2          4.3993    3.7867   -0.3931 H         1 <0>         0.0849
     26 H3          3.8471    2.9245   -1.8491 H         1 <0>         0.0830
     27 H4          5.0908    2.6238    1.5086 H         1 <0>         0.1348
     28 H5          4.1705    1.1256    2.0654 H         1 <0>         0.1273
     29 H6          1.1794    2.6527    0.0050 H         1 <0>         0.4328
     30 H7          0.0021   -0.0041    0.0020 H         1 <0>         0.4354
     31 H8         -2.4307   -0.2054    0.0125 H         1 <0>         0.1404
     32 H9         -3.6365    2.6125    0.0335 H         1 <0>         0.1498
     33 H10        -3.9316   -1.1503    0.0041 H         1 <0>         0.1527
     34 H11        -6.0509   -2.3974    0.0164 H         1 <0>         0.1589
     35 H12        -8.2343    1.2686    0.0475 H         1 <0>         0.1595
     36 H13        -6.1284    2.5381    0.0456 H         1 <0>         0.1555
@<TRIPOS>BOND
     1    1    2 1
     2    1   24 1
     3    1   25 1
     4    1   26 1
     5    2    4 1
     6    2    3 1
     7    2    7 1
     8    3    4 1
     9    3   27 1
    10    3   28 1
    11    4    5 1
    12    4    6 1
    13    7    8 2
    14    7    9 am
    15    9   10 1
    16    9   29 1
    17   10   11 am
    18   10   30 1
    19   11   12 2
    20   11   13 1
    21   13   14 2
    22   13   31 1
    23   14   15 1
    24   14   32 1
    25   15   20 ar
    26   15   16 ar
    27   16   17 ar
    28   16   33 1
    29   17   18 ar
    30   17   34 1
    31   18   19 ar
    32   18   21 1
    33   19   20 ar
    34   19   35 1
    35   20   36 1
    36   21   22 2
    37   21   23 1
@<TRIPOS>MOLECULE
ZINC16739619
   44    46     0     0     0
SMALL
USER_CHARGES
(2E,5R)-5-[2-(4-chlorophenyl)-2-oxo-ethyl]-2-[(E)-(4-hydroxy-3-methoxy-phenyl)methylenehydrazono]thiazolidin-4-one
@<TRIPOS>ATOM
      1 C1        -12.6269   -0.0139    8.0907 C.3       1 <0>         0.0223
      2 O1        -13.2499    0.8603    7.1475 O.3       1 <0>        -0.3058
      3 C2        -12.5465    1.1565    6.0219 C.ar      1 <0>         0.0989
      4 C3        -11.2903    0.6133    5.8294 C.ar      1 <0>        -0.1615
      5 C4        -10.5677    0.9244    4.6730 C.ar      1 <0>        -0.0409
      6 C5        -11.1251    1.7748    3.7126 C.ar      1 <0>        -0.0919
      7 C6        -12.3812    2.3075    3.9102 C.ar      1 <0>        -0.1150
      8 C7        -13.0949    2.0028    5.0604 C.ar      1 <0>         0.0978
      9 O2        -14.3331    2.5312    5.2496 O.3       1 <0>        -0.4856
     10 C8         -9.2276    0.3540    4.4646 C.2       1 <0>         0.2017
     11 N1         -8.5570    0.6413    3.3821 N.2       1 <0>        -0.3690
     12 N2         -7.3820    0.1412    3.1994 N.2       1 <0>        -0.3469
     13 C9         -6.7057    0.4310    2.1077 C.2       1 <0>         0.3814
     14 N3         -7.0873    1.2422    1.0599 N.am      1 <0>        -0.6776
     15 C10        -6.3109    1.4554    0.0100 C.2       1 <0>         0.5255
     16 O3         -6.6506    2.1692   -0.9096 O.2       1 <0>        -0.4747
     17 C11        -4.9650    0.7491    0.0296 C.3       1 <0>        -0.0954
     18 H1         -4.8746    0.0485   -0.8005 H         1 <0>         0.1677
     19 S1         -5.0780   -0.1339    1.6360 S.3       1 <0>         0.0188
     20 C12        -3.8115    1.7542    0.0296 C.3       1 <0>        -0.1350
     21 C13        -2.4994    1.0131    0.0194 C.2       1 <0>         0.4023
     22 O4         -2.4880   -0.1995    0.0128 O.2       1 <0>        -0.4337
     23 C14        -1.2325    1.7605    0.0174 C.ar      1 <0>        -0.1679
     24 C15        -0.0126    1.0758    0.0080 C.ar      1 <0>        -0.0428
     25 C16         1.1704    1.7827    0.0005 C.ar      1 <0>        -0.1220
     26 C17         1.1535    3.1683    0.0076 C.ar      1 <0>        -0.0025
     27 C18        -0.0510    3.8531    0.0218 C.ar      1 <0>        -0.1222
     28 C19        -1.2418    3.1594    0.0294 C.ar      1 <0>        -0.0596
     29 Cl1         2.6486    4.0504   -0.0020 Cl        1 <0>        -0.0552
     30 H2        -12.4181   -0.9722    7.6151 H         1 <0>         0.0576
     31 H3        -11.6938    0.4308    8.4369 H         1 <0>         0.0580
     32 H4        -13.2933   -0.1670    8.9395 H         1 <0>         0.1038
     33 H5        -10.8661   -0.0463    6.5719 H         1 <0>         0.1407
     34 H6        -10.5716    2.0143    2.8166 H         1 <0>         0.1375
     35 H7        -12.8107    2.9640    3.1680 H         1 <0>         0.1417
     36 H8        -15.0509    1.9876    4.8968 H         1 <0>         0.3913
     37 H9         -8.7986   -0.3024    5.2073 H         1 <0>         0.1196
     38 H10        -7.9564    1.6717    1.0935 H         1 <0>         0.4217
     39 H11        -3.8660    2.3242    0.8495 H         1 <0>         0.1064
     40 H12        -3.8793    2.3851   -0.8567 H         1 <0>         0.1345
     41 H13         0.0021   -0.0041    0.0020 H         1 <0>         0.1466
     42 H14         2.1129    1.2555   -0.0106 H         1 <0>         0.1434
     43 H15        -0.0566    4.9331    0.0266 H         1 <0>         0.1434
     44 H16        -2.1799    3.6945    0.0406 H         1 <0>         0.1428
@<TRIPOS>BOND
     1    1    2 1
     2    1   30 1
     3    1   31 1
     4    1   32 1
     5    2    3 1
     6    3    8 ar
     7    3    4 ar
     8    4    5 ar
     9    4   33 1
    10    5    6 ar
    11    5   10 1
    12    6    7 ar
    13    6   34 1
    14    7    8 ar
    15    7   35 1
    16    8    9 1
    17    9   36 1
    18   10   11 2
    19   10   37 1
    20   11   12 1
    21   12   13 2
    22   13   19 1
    23   13   14 1
    24   14   15 am
    25   14   38 1
    26   15   16 2
    27   15   17 1
    28   17   18 1
    29   17   19 1
    30   17   20 1
    31   20   21 1
    32   20   39 1
    33   20   40 1
    34   21   22 2
    35   21   23 1
    36   23   28 ar
    37   23   24 ar
    38   24   25 ar
    39   24   41 1
    40   25   26 ar
    41   25   42 1
    42   26   27 ar
    43   26   29 1
    44   27   28 ar
    45   27   43 1
    46   28   44 1
@<TRIPOS>MOLECULE
ZINC29269451
   41    43     0     0     0
SMALL
USER_CHARGES
[2-[(2R)-2-carbamoyl-2,3-dihydro-1,4-benzoxazin-4-yl]-2-oxo-ethyl] 4-bromobenzoate
@<TRIPOS>ATOM
      1 C1         -4.8139    1.0506   -1.3088 C.ar      1 <0>        -0.1271
      2 C2         -4.0938    1.2832   -2.4662 C.ar      1 <0>        -0.0986
      3 C3         -2.7233    1.4531   -2.4123 C.ar      1 <0>        -0.1226
      4 C4         -2.0630    1.3908   -1.1940 C.ar      1 <0>         0.0970
      5 C5         -2.7900    1.1540   -0.0307 C.ar      1 <0>         0.0716
      6 C6         -4.1642    0.9856   -0.0902 C.ar      1 <0>        -0.1156
      7 N1         -2.1245    1.0851    1.2054 N.am      1 <0>        -0.5514
      8 C7         -0.7314    1.5690    1.2635 C.3       1 <0>         0.0725
      9 C8         -0.0188    1.0716   -0.0022 C.3       1 <0>         0.0608
     10 H1         -0.0253   -0.0257   -0.0783 H         1 <0>         0.1086
     11 O1         -0.7156    1.5623   -1.1498 O.3       1 <0>        -0.2854
     12 C9          1.3995    1.5809   -0.0165 C.2       1 <0>         0.5293
     13 O2          1.7543    2.3630   -0.8728 O.2       1 <0>        -0.5129
     14 N2          2.2735    1.1673    0.9223 N.am      1 <0>        -0.8703
     15 C10        -2.7369    0.5935    2.3008 C.2       1 <0>         0.5228
     16 O3         -3.9054    0.2722    2.2495 O.2       1 <0>        -0.4828
     17 C11        -1.9699    0.4430    3.5892 C.3       1 <0>         0.0489
     18 O4         -2.8082   -0.2111    4.5780 O.3       1 <0>        -0.3252
     19 C12        -2.2683   -0.4225    5.7940 C.2       1 <0>         0.5155
     20 O5         -1.1283   -0.0702    6.0220 O.2       1 <0>        -0.4972
     21 C13        -3.0622   -1.0827    6.8497 C.ar      1 <0>        -0.1156
     22 C14        -4.3750   -1.4838    6.5925 C.ar      1 <0>        -0.0514
     23 C15        -5.1089   -2.1058    7.5805 C.ar      1 <0>        -0.1038
     24 C16        -4.5511   -2.3213    8.8296 C.ar      1 <0>        -0.0559
     25 C17        -3.2519   -1.9204    9.0929 C.ar      1 <0>        -0.1032
     26 C18        -2.5054   -1.3034    8.1114 C.ar      1 <0>        -0.0452
     27 Br1        -5.5675   -3.1673   10.1813 Br        1 <0>        -0.0328
     28 H2         -5.8849    0.9200   -1.3569 H         1 <0>         0.1315
     29 H3         -4.6046    1.3324   -3.4165 H         1 <0>         0.1336
     30 H4         -2.1661    1.6350   -3.3194 H         1 <0>         0.1386
     31 H5         -4.7266    0.8041    0.8138 H         1 <0>         0.1725
     32 H6         -0.7264    2.6683    1.3013 H         1 <0>         0.1065
     33 H7         -0.2415    1.1690    2.1635 H         1 <0>         0.1132
     34 H8          3.3087    1.5390    0.9119 H         1 <0>         0.4369
     35 H9          1.9516    0.4580    1.6990 H         1 <0>         0.4214
     36 H10        -1.0703   -0.1646    3.4115 H         1 <0>         0.1093
     37 H11        -1.6745    1.4362    3.9583 H         1 <0>         0.1132
     38 H12        -4.8127   -1.3119    5.6203 H         1 <0>         0.1520
     39 H13        -6.1224   -2.4211    7.3813 H         1 <0>         0.1454
     40 H14        -2.8225   -2.0916   10.0689 H         1 <0>         0.1462
     41 H15        -1.4921   -0.9918    8.3177 H         1 <0>         0.1493
@<TRIPOS>BOND
     1    1    6 ar
     2    1    2 ar
     3    1   28 1
     4    2    3 ar
     5    2   29 1
     6    3    4 ar
     7    3   30 1
     8    4   11 1
     9    4    5 ar
    10    5    6 ar
    11    5    7 1
    12    6   31 1
    13    7    8 1
    14    7   15 am
    15    8    9 1
    16    8   32 1
    17    8   33 1
    18    9   10 1
    19    9   11 1
    20    9   12 1
    21   12   13 2
    22   12   14 am
    23   14   34 1
    24   14   35 1
    25   15   16 2
    26   15   17 1
    27   17   18 1
    28   17   36 1
    29   17   37 1
    30   18   19 1
    31   19   20 2
    32   19   21 1
    33   21   26 ar
    34   21   22 ar
    35   22   23 ar
    36   22   38 1
    37   23   24 ar
    38   23   39 1
    39   24   25 ar
    40   24   27 1
    41   25   26 ar
    42   25   40 1
    43   26   41 1
@<TRIPOS>MOLECULE
ZINC44441531
   54    56     0     0     0
SMALL
USER_CHARGES

@<TRIPOS>ATOM
      1 C1         -0.0475    1.5877    0.0783 C.3       1 <0>        -0.1173
      2 C2         -0.0108    0.0813    0.0593 C.ar      1 <0>        -0.0374
      3 C3          0.0078   -0.5941   -1.1476 C.ar      1 <0>        -0.1794
      4 C4          0.0410   -1.9761   -1.1696 C.ar      1 <0>        -0.0666
      5 C5          0.0561   -2.6871    0.0146 C.ar      1 <0>        -0.2056
      6 C6          0.0379   -2.0121    1.2283 C.ar      1 <0>         0.2219
      7 C7          0.0098   -0.6231    1.2468 C.ar      1 <0>        -0.2010
      8 N1          0.0531   -2.7279    2.4276 N.pl3     1 <0>        -0.6282
      9 C8          0.1500   -2.0271    3.7157 C.3       1 <0>         0.1092
     10 C9         -1.0306   -2.4548    4.5964 C.3       1 <0>         0.1000
     11 N2         -1.1117   -3.9222    4.5927 N.pl3     1 <0>        -0.9957
     12 C10        -1.2086   -4.6230    3.3046 C.3       1 <0>         0.1002
     13 C11        -0.0336   -4.1949    2.4242 C.3       1 <0>         0.1096
     14 S1         -1.0937   -4.7709    6.0146 S.o2      1 <0>         2.6161
     15 O1         -0.5755   -6.0479    5.6682 O.2       1 <0>        -0.9405
     16 O2         -0.4013   -3.9319    6.9289 O.2       1 <0>        -0.9406
     17 C12        -2.8372   -4.9133    6.4946 C.3       1 <0>        -0.6564
     18 C13        -2.9425   -5.6882    7.8097 C.3       1 <0>         0.1512
     19 N3         -4.3506   -5.8032    8.1973 N.am      1 <0>        -0.7351
     20 C14        -4.6868   -6.4507    9.3305 C.2       1 <0>         0.7036
     21 O3         -3.8215   -6.9394   10.0311 O.2       1 <0>        -0.5646
     22 N4         -5.9822   -6.5565    9.6871 N.am      1 <0>        -0.6841
     23 C15        -6.3250   -7.1267   10.9197 C.ar      1 <0>         0.1528
     24 C16        -7.4800   -7.8883   11.0361 C.ar      1 <0>        -0.1168
     25 C17        -7.8160   -8.4502   12.2523 C.ar      1 <0>        -0.1326
     26 C18        -7.0017   -8.2543   13.3550 C.ar      1 <0>         0.0837
     27 C19        -5.8496   -7.4946   13.2411 C.ar      1 <0>        -0.1319
     28 C20        -5.5071   -6.9359   12.0253 C.ar      1 <0>        -0.0902
     29 F1         -7.3321   -8.8046   14.5438 F         1 <0>        -0.1387
     30 H1          0.9710    1.9759    0.0799 H         1 <0>         0.0718
     31 H2         -0.5729    1.9495   -0.8055 H         1 <0>         0.0673
     32 H3         -0.5671    1.9272    0.9744 H         1 <0>         0.0650
     33 H4         -0.0040   -0.0406   -2.0749 H         1 <0>         0.1175
     34 H5          0.0547   -2.5004   -2.1137 H         1 <0>         0.1208
     35 H6          0.0816   -3.7666   -0.0033 H         1 <0>         0.1216
     36 H7         -0.0003   -0.0951    2.1888 H         1 <0>         0.1219
     37 H8          1.0869   -2.2912    4.2063 H         1 <0>         0.0717
     38 H9          0.1117   -0.9504    3.5502 H         1 <0>         0.0976
     39 H10        -0.8747   -2.0996    5.6150 H         1 <0>         0.1053
     40 H11        -1.9548   -2.0364    4.1978 H         1 <0>         0.0762
     41 H12        -1.1702   -5.6997    3.4701 H         1 <0>         0.1057
     42 H13        -2.1454   -4.3589    2.8140 H         1 <0>         0.0759
     43 H14        -0.1932   -4.5496    1.4059 H         1 <0>         0.0978
     44 H15         0.8898   -4.6169    2.8207 H         1 <0>         0.0711
     45 H16        -3.2608   -3.9175    6.6248 H         1 <0>         0.1406
     46 H17        -3.3863   -5.4428    5.7160 H         1 <0>         0.1405
     47 H18        -2.5189   -6.6841    7.6795 H         1 <0>         0.0864
     48 H19        -2.3934   -5.1587    8.5883 H         1 <0>         0.0866
     49 H20        -5.0409   -5.4134    7.6384 H         1 <0>         0.4022
     50 H21        -6.6772   -6.2378    9.0902 H         1 <0>         0.4093
     51 H22        -8.1155   -8.0411   10.1763 H         1 <0>         0.1362
     52 H23        -8.7145   -9.0424   12.3434 H         1 <0>         0.1408
     53 H24        -5.2162   -7.3424   14.1025 H         1 <0>         0.1404
     54 H25        -4.6061   -6.3472   11.9358 H         1 <0>         0.1446
@<TRIPOS>BOND
     1    1    2 1
     2    1   30 1
     3    1   31 1
     4    1   32 1
     5    2    7 ar
     6    2    3 ar
     7    3    4 ar
     8    3   33 1
     9    4    5 ar
    10    4   34 1
    11    5    6 ar
    12    5   35 1
    13    6    7 ar
    14    6    8 1
    15    7   36 1
    16    8   13 1
    17    8    9 1
    18    9   10 1
    19    9   37 1
    20    9   38 1
    21   10   11 1
    22   10   39 1
    23   10   40 1
    24   11   12 1
    25   11   14 1
    26   12   13 1
    27   12   41 1
    28   12   42 1
    29   13   43 1
    30   13   44 1
    31   14   15 2
    32   14   16 2
    33   14   17 1
    34   17   18 1
    35   17   45 1
    36   17   46 1
    37   18   19 1
    38   18   47 1
    39   18   48 1
    40   19   20 am
    41   19   49 1
    42   20   21 2
    43   20   22 am
    44   22   23 1
    45   22   50 1
    46   23   28 ar
    47   23   24 ar
    48   24   25 ar
    49   24   51 1
    50   25   26 ar
    51   25   52 1
    52   26   27 ar
    53   26   29 1
    54   27   28 ar
    55   27   53 1
    56   28   54 1
@<TRIPOS>MOLECULE
ZINC40267546
   46    49     0     0     0
SMALL
USER_CHARGES

@<TRIPOS>ATOM
      1 C1         -0.0173    1.4248    0.0099 C.3       1 <0>         0.0235
      2 O1          0.0021   -0.0041    0.0020 O.3       1 <0>        -0.3070
      3 C2          0.6062   -0.6075   -1.0564 C.ar      1 <0>         0.1064
      4 C3          1.1729    0.1590   -2.0621 C.ar      1 <0>        -0.1789
      5 C4          1.7870   -0.4560   -3.1371 C.ar      1 <0>        -0.0475
      6 C5          1.8372   -1.8356   -3.2121 C.ar      1 <0>        -0.1342
      7 C6          1.2734   -2.6062   -2.2124 C.ar      1 <0>        -0.1031
      8 C7          0.6617   -1.9961   -1.1290 C.ar      1 <0>         0.0761
      9 O2          0.1119   -2.7526   -0.1417 O.3       1 <0>        -0.4860
     10 C8          2.4028    0.3792   -4.2300 C.3       1 <0>         0.0465
     11 H1          2.2691    1.4374   -4.0056 H         1 <0>         0.1155
     12 C9          1.7428    0.0457   -5.5727 C.3       1 <0>        -0.1018
     13 C10         2.2606   -1.2456   -6.1348 C.2       1 <0>         0.3882
     14 N1          3.4777   -1.6659   -5.9542 N.2       1 <0>        -0.5464
     15 C11         4.3272   -0.9213   -5.1900 C.2       1 <0>         0.1927
     16 C12         3.8731    0.0635   -4.3474 C.2       1 <0>        -0.0279
     17 N2          4.9199    0.6037   -3.7375 N.2       1 <0>        -0.4497
     18 C13         6.0160    0.0173   -4.1513 C.2       1 <0>         0.1890
     19 N3          5.6855   -0.9462   -5.0663 N.pl3     1 <0>        -0.3922
     20 C14         6.5724   -1.7947   -5.7463 C.ar      1 <0>         0.1025
     21 C15         6.3395   -3.1629   -5.7755 C.ar      1 <0>        -0.0576
     22 C16         7.2125   -3.9975   -6.4448 C.ar      1 <0>        -0.1072
     23 C17         8.3223   -3.4688   -7.0879 C.ar      1 <0>         0.1153
     24 C18         8.5554   -2.1016   -7.0590 C.ar      1 <0>        -0.1757
     25 C19         7.6799   -1.2656   -6.3948 C.ar      1 <0>        -0.0702
     26 O3          9.1818   -4.2910   -7.7463 O.3       1 <0>        -0.3072
     27 C20        10.3034   -3.6788   -8.3861 C.3       1 <0>         0.6042
     28 F1         11.0783   -3.0119   -7.4312 F         1 <0>        -0.1628
     29 F2         11.0779   -4.6622   -9.0109 F         1 <0>        -0.1272
     30 F3          9.8521   -2.7631   -9.3426 F         1 <0>        -0.1631
     31 O4          1.4204   -2.0095   -6.8645 O.3       1 <0>        -0.4545
     32 H2          1.0053    1.8021    0.0021 H         1 <0>         0.0577
     33 H3         -0.5445    1.7859   -0.8732 H         1 <0>         0.0567
     34 H4         -0.5275    1.7763    0.9067 H         1 <0>         0.1024
     35 H5          1.1344    1.2368   -2.0063 H         1 <0>         0.1363
     36 H6          2.3175   -2.3124   -4.0537 H         1 <0>         0.1240
     37 H7          1.3136   -3.6837   -2.2735 H         1 <0>         0.1353
     38 H8         -0.8162   -2.9794   -0.2906 H         1 <0>         0.3870
     39 H9          0.6652   -0.0348   -5.4296 H         1 <0>         0.1145
     40 H10         1.9479    0.8496   -6.2797 H         1 <0>         0.1132
     41 H11         7.0173    0.2555   -3.8240 H         1 <0>         0.2173
     42 H12         5.4757   -3.5745   -5.2746 H         1 <0>         0.1467
     43 H13         7.0316   -5.0620   -6.4673 H         1 <0>         0.1509
     44 H14         9.4195   -1.6905   -7.5598 H         1 <0>         0.1446
     45 H15         7.8590   -0.2007   -6.3761 H         1 <0>         0.1434
     46 H16         1.8187   -2.8262   -7.1955 H         1 <0>         0.4102
@<TRIPOS>BOND
     1    1    2 1
     2    1   32 1
     3    1   33 1
     4    1   34 1
     5    2    3 1
     6    3    8 ar
     7    3    4 ar
     8    4    5 ar
     9    4   35 1
    10    5    6 ar
    11    5   10 1
    12    6    7 ar
    13    6   36 1
    14    7    8 ar
    15    7   37 1
    16    8    9 1
    17    9   38 1
    18   10   11 1
    19   10   16 1
    20   10   12 1
    21   12   13 1
    22   12   39 1
    23   12   40 1
    24   13   14 2
    25   13   31 1
    26   14   15 1
    27   15   19 1
    28   15   16 2
    29   16   17 1
    30   17   18 2
    31   18   19 1
    32   18   41 1
    33   19   20 1
    34   20   25 ar
    35   20   21 ar
    36   21   22 ar
    37   21   42 1
    38   22   23 ar
    39   22   43 1
    40   23   24 ar
    41   23   26 1
    42   24   25 ar
    43   24   44 1
    44   25   45 1
    45   26   27 1
    46   27   28 1
    47   27   29 1
    48   27   30 1
    49   31   46 1
@<TRIPOS>MOLECULE
ZINC04349577
   75    79     0     0     0
SMALL
USER_CHARGES
7-[4,5-dihydroxy-6-(hydroxymethyl)-3-(3,4,5-trihydroxy-6-methyl-tetrahydropyran-2-yl)oxy-tetrahydropyran-2-yl]oxy-5-hydroxy-2-(3-hydroxy-4-methoxy-phenyl)-chromen-4-one
@<TRIPOS>ATOM
      1 C1         -0.7532    1.5929   -1.2311 C.3       1 <0>        -0.1541
      2 C2         -0.0127    1.0858    0.0080 C.3       1 <0>         0.0680
      3 H1          0.0021   -0.0041    0.0020 H         1 <0>         0.0795
      4 C3         -0.7280    1.5798    1.2682 C.3       1 <0>         0.0850
      5 H2         -1.7365    1.1674    1.2999 H         1 <0>         0.0833
      6 C4          0.0527    1.1187    2.5029 C.3       1 <0>         0.1226
      7 H3         -0.4196    1.5129    3.4027 H         1 <0>         0.0821
      8 C5          1.4901    1.6395    2.4084 C.3       1 <0>         0.0702
      9 H4          1.4850    2.7294    2.4188 H         1 <0>         0.0879
     10 C6          2.1197    1.1432    1.1041 C.3       1 <0>         0.2241
     11 H5          2.1625    0.0541    1.1124 H         1 <0>         0.0672
     12 O1          1.3279    1.5807   -0.0021 O.3       1 <0>        -0.3957
     13 O2          3.4419    1.6713    0.9821 O.3       1 <0>        -0.2988
     14 C7          4.1622    1.1790   -0.1496 C.3       1 <0>         0.0964
     15 H6          3.8270    0.1684   -0.3833 H         1 <0>         0.0886
     16 C8          5.6612    1.1625    0.1653 C.3       1 <0>         0.1184
     17 H7          6.2066    0.7408   -0.6790 H         1 <0>         0.0938
     18 C9          6.1349    2.5974    0.4161 C.3       1 <0>         0.0519
     19 H8          7.2113    2.6020    0.5872 H         1 <0>         0.0710
     20 C10         5.8079    3.4558   -0.8086 C.3       1 <0>         0.0561
     21 H9          6.3497    3.0754   -1.6745 H         1 <0>         0.0792
     22 O3          4.4030    3.4028   -1.0645 O.3       1 <0>        -0.3424
     23 C11         3.9115    2.0922   -1.3525 C.3       1 <0>         0.2267
     24 H10         2.8415    2.1415   -1.5546 H         1 <0>         0.1373
     25 O4          4.5893    1.5698   -2.4969 O.3       1 <0>        -0.3240
     26 C12         4.3845    2.2064   -3.6783 C.ar      1 <0>         0.2098
     27 C13         3.5400    3.3103   -3.7283 C.ar      1 <0>        -0.2390
     28 C14         3.3279    3.9687   -4.9254 C.ar      1 <0>         0.2403
     29 C15         3.9618    3.5095   -6.0869 C.ar      1 <0>        -0.2855
     30 C16         3.7595    4.1780   -7.3835 C.2       1 <0>         0.4253
     31 O5          3.0340    5.1538   -7.4874 O.2       1 <0>        -0.4588
     32 C17         4.4397    3.6450   -8.5040 C.2       1 <0>        -0.3139
     33 C18         5.2400    2.5563   -8.3472 C.2       1 <0>         0.2129
     34 O6          5.4161    1.9553   -7.1597 O.3       1 <0>        -0.2182
     35 C19         4.8105    2.3906   -6.0345 C.ar      1 <0>         0.1987
     36 C20         5.0146    1.7464   -4.8241 C.ar      1 <0>        -0.1882
     37 C21         5.9403    2.0148   -9.5271 C.ar      1 <0>        -0.0963
     38 C22         5.7717    2.6146  -10.7780 C.ar      1 <0>        -0.0436
     39 C23         6.4303    2.1100  -11.8784 C.ar      1 <0>        -0.1983
     40 C24         7.2541    1.0002  -11.7497 C.ar      1 <0>         0.1315
     41 C25         7.4227    0.3937  -10.5061 C.ar      1 <0>         0.0726
     42 C26         6.7695    0.8972   -9.3977 C.ar      1 <0>        -0.0656
     43 O7          8.2306   -0.6934  -10.3837 O.3       1 <0>        -0.4813
     44 O8          7.8973    0.5038  -12.8385 O.3       1 <0>        -0.3013
     45 C27         7.6798    1.1737  -14.0819 C.3       1 <0>         0.0206
     46 O9          2.5083    5.0492   -4.9754 O.3       1 <0>        -0.4707
     47 C28         6.2237    4.9040   -0.5424 C.3       1 <0>         0.0824
     48 O10         6.0252    5.6816   -1.7247 O.3       1 <0>        -0.5579
     49 O11         5.4668    3.1273    1.5628 O.3       1 <0>        -0.5229
     50 O12         5.8960    0.3708    1.3316 O.3       1 <0>        -0.5406
     51 O13         2.2475    1.1549    3.5190 O.3       1 <0>        -0.5607
     52 O14         0.0641   -0.3093    2.5554 O.3       1 <0>        -0.5597
     53 O15        -0.7947    3.0071    1.2510 O.3       1 <0>        -0.5497
     54 H11        -0.2434    1.2414   -2.1282 H         1 <0>         0.0712
     55 H12        -1.7758    1.2157   -1.2231 H         1 <0>         0.0788
     56 H13        -0.7678    2.6828   -1.2250 H         1 <0>         0.0689
     57 H14         3.0518    3.6563   -2.8293 H         1 <0>         0.1549
     58 H15         4.3240    4.0992   -9.4770 H         1 <0>         0.1615
     59 H16         5.6648    0.8855   -4.7738 H         1 <0>         0.1527
     60 H17         5.1281    3.4757  -10.8817 H         1 <0>         0.1433
     61 H18         6.3018    2.5765  -12.8440 H         1 <0>         0.1450
     62 H19         6.8990    0.4279   -8.4336 H         1 <0>         0.1495
     63 H20         7.7767   -1.5374  -10.5130 H         1 <0>         0.3907
     64 H21         8.0046    2.2108  -13.9975 H         1 <0>         0.0607
     65 H22         8.2502    0.6771  -14.8668 H         1 <0>         0.1061
     66 H23         6.6188    1.1443  -14.3297 H         1 <0>         0.0603
     67 H24         1.5832    4.8331   -5.1559 H         1 <0>         0.4005
     68 H25         5.6188    5.3127    0.2671 H         1 <0>         0.0595
     69 H26         7.2761    4.9338   -0.2603 H         1 <0>         0.0622
     70 H27         6.2686    6.6125   -1.6287 H         1 <0>         0.3836
     71 H28         5.7156    4.0367    1.7777 H         1 <0>         0.3706
     72 H29         6.8264    0.3166    1.5894 H         1 <0>         0.3822
     73 H30         3.1708    1.4425    3.5208 H         1 <0>         0.3972
     74 H31         0.5482   -0.6712    3.3102 H         1 <0>         0.3974
     75 H32        -1.2720    3.3694    0.4920 H         1 <0>         0.3870
@<TRIPOS>BOND
     1    1    2 1
     2    1   54 1
     3    1   55 1
     4    1   56 1
     5    2    3 1
     6    2   12 1
     7    2    4 1
     8    4    5 1
     9    4    6 1
    10    4   53 1
    11    6    7 1
    12    6    8 1
    13    6   52 1
    14    8    9 1
    15    8   10 1
    16    8   51 1
    17   10   11 1
    18   10   12 1
    19   10   13 1
    20   13   14 1
    21   14   15 1
    22   14   23 1
    23   14   16 1
    24   16   17 1
    25   16   18 1
    26   16   50 1
    27   18   19 1
    28   18   20 1
    29   18   49 1
    30   20   21 1
    31   20   22 1
    32   20   47 1
    33   22   23 1
    34   23   24 1
    35   23   25 1
    36   25   26 1
    37   26   36 ar
    38   26   27 ar
    39   27   28 ar
    40   27   57 1
    41   28   29 ar
    42   28   46 1
    43   29   35 ar
    44   29   30 1
    45   30   31 2
    46   30   32 1
    47   32   33 2
    48   32   58 1
    49   33   34 1
    50   33   37 1
    51   34   35 1
    52   35   36 ar
    53   36   59 1
    54   37   42 ar
    55   37   38 ar
    56   38   39 ar
    57   38   60 1
    58   39   40 ar
    59   39   61 1
    60   40   41 ar
    61   40   44 1
    62   41   42 ar
    63   41   43 1
    64   42   62 1
    65   43   63 1
    66   44   45 1
    67   45   64 1
    68   45   65 1
    69   45   66 1
    70   46   67 1
    71   47   48 1
    72   47   68 1
    73   47   69 1
    74   48   70 1
    75   49   71 1
    76   50   72 1
    77   51   73 1
    78   52   74 1
    79   53   75 1
@<TRIPOS>MOLECULE
ZINC19928397
   63    66     0     0     0
SMALL
USER_CHARGES
3-(4-amino-1,2,5-oxadiazol-3-yl)-N-[[4-(2-amino-2-oxo-ethoxy)-3-ethoxy-phenyl]methyleneamino]-5-(morpholinomethyl)triazole-4-carboxamide
@<TRIPOS>ATOM
      1 C1          0.0457   -4.1879    1.3345 C.3       1 <0>        -0.1553
      2 C2         -0.1583   -2.6874    1.1158 C.3       1 <0>         0.0505
      3 O1          1.1078   -2.0612    0.8990 O.3       1 <0>        -0.2987
      4 C3          1.1039   -0.7179    0.6866 C.ar      1 <0>         0.1055
      5 C4         -0.0902   -0.0217    0.6872 C.ar      1 <0>        -0.1415
      6 C5         -0.0905    1.3585    0.4690 C.ar      1 <0>        -0.0581
      7 C6          1.1165    2.0281    0.2514 C.ar      1 <0>        -0.0668
      8 C7          2.3036    1.3266    0.2519 C.ar      1 <0>        -0.1811
      9 C8          2.3035   -0.0437    0.4689 C.ar      1 <0>         0.1215
     10 O2          3.4767   -0.7303    0.4688 O.3       1 <0>        -0.2749
     11 C9          4.6692    0.0230    0.2393 C.3       1 <0>         0.0332
     12 C10         5.8605   -0.8992    0.2748 C.2       1 <0>         0.5201
     13 O3          5.7038   -2.0848    0.4767 O.2       1 <0>        -0.5232
     14 N1          7.1001   -0.4065    0.0821 N.am      1 <0>        -0.8747
     15 C11        -1.3614    2.1054    0.4624 C.2       1 <0>         0.1276
     16 N2         -1.3597    3.3876    0.2596 N.2       1 <0>        -0.2204
     17 N3         -2.5676    4.0974    0.2533 N.am      1 <0>        -0.5752
     18 C12        -2.5659    5.4286    0.0427 C.2       1 <0>         0.6185
     19 O4         -1.5115    6.0262   -0.0643 O.2       1 <0>        -0.4618
     20 C13        -3.8388    6.1590   -0.0578 C.2       1 <0>        -0.0334
     21 C14        -4.4675    6.5756   -1.2024 C.2       1 <0>         0.0655
     22 N4         -5.5846    7.1918   -0.8147 N.2       1 <0>        -0.2016
     23 N5         -5.6632    7.1708    0.4678 N.2       1 <0>        -0.0449
     24 N6         -4.6495    6.5613    0.9753 N.pl3     1 <0>        -0.2143
     25 C15        -4.4138    6.3490    2.3371 C.2       1 <0>         0.2676
     26 C16        -5.3342    6.6802    3.4288 C.2       1 <0>         0.3684
     27 N7         -4.7729    6.3390    4.5561 N.2       1 <0>        -0.3414
     28 O5         -3.5021    5.7878    4.2588 O.3       1 <0>         0.0618
     29 N8         -3.3408    5.8179    2.8517 N.2       1 <0>        -0.2459
     30 N9         -6.5902    7.2592    3.2873 N.pl3     1 <0>        -0.8264
     31 C17        -3.9907    6.3766   -2.6181 C.3       1 <0>         0.1257
     32 N10        -4.5203    5.1096   -3.1396 N.3       1 <0>        -0.5275
     33 C18        -3.9470    3.9629   -2.4201 C.3       1 <0>         0.0099
     34 C19        -4.5692    2.6697   -2.9535 C.3       1 <0>         0.0647
     35 O6         -4.3503    2.5879   -4.3645 O.3       1 <0>        -0.3800
     36 C20        -4.8962    3.6886   -5.0965 C.3       1 <0>         0.0614
     37 C21        -4.2774    4.9921   -4.5848 C.3       1 <0>         0.0173
     38 H1         -0.9289   -4.6699    1.5014 H         1 <0>         0.0795
     39 H2          0.6884   -4.3463    2.2131 H         1 <0>         0.0685
     40 H3          0.5242   -4.6262    0.4463 H         1 <0>         0.0686
     41 H4         -0.8010   -2.5290    0.2372 H         1 <0>         0.0631
     42 H5         -0.6369   -2.2491    2.0040 H         1 <0>         0.0629
     43 H6         -1.0208   -0.5431    0.8561 H         1 <0>         0.1422
     44 H7          1.1196    3.0948    0.0825 H         1 <0>         0.1414
     45 H8          3.2359    1.8451    0.0832 H         1 <0>         0.1403
     46 H9          4.6115    0.5098   -0.7454 H         1 <0>         0.0955
     47 H10         4.7752    0.7892    1.0214 H         1 <0>         0.0956
     48 H11         7.9697   -1.0797    0.1080 H         1 <0>         0.4316
     49 H12         7.2422    0.6688   -0.1011 H         1 <0>         0.4220
     50 H13        -2.3112    1.5762    0.6293 H         1 <0>         0.1259
     51 H14        -3.5174    3.5682    0.4202 H         1 <0>         0.4011
     52 H15        -7.2033    7.4672    4.1766 H         1 <0>         0.4496
     53 H16        -6.9709    7.5093    2.2860 H         1 <0>         0.4547
     54 H17        -4.3456    7.2080   -3.2448 H         1 <0>         0.1167
     55 H18        -2.8912    6.3487   -2.6342 H         1 <0>         0.0695
     56 H19        -2.8583    3.9396   -2.5756 H         1 <0>         0.0516
     57 H20        -4.1619    4.0595   -1.3456 H         1 <0>         0.0711
     58 H21        -4.1020    1.8062   -2.4573 H         1 <0>         0.0980
     59 H22        -5.6497    2.6705   -2.7476 H         1 <0>         0.0622
     60 H23        -4.6680    3.5671   -6.1657 H         1 <0>         0.1049
     61 H24        -5.9867    3.7180   -4.9554 H         1 <0>         0.0640
     62 H25        -4.7357    5.8465   -5.1043 H         1 <0>         0.0966
     63 H26        -3.1940    4.9855   -4.7752 H         1 <0>         0.0506
@<TRIPOS>BOND
     1    1    2 1
     2    1   38 1
     3    1   39 1
     4    1   40 1
     5    2    3 1
     6    2   41 1
     7    2   42 1
     8    3    4 1
     9    4    9 ar
    10    4    5 ar
    11    5    6 ar
    12    5   43 1
    13    6    7 ar
    14    6   15 1
    15    7    8 ar
    16    7   44 1
    17    8    9 ar
    18    8   45 1
    19    9   10 1
    20   10   11 1
    21   11   12 1
    22   11   46 1
    23   11   47 1
    24   12   13 2
    25   12   14 am
    26   14   48 1
    27   14   49 1
    28   15   16 2
    29   15   50 1
    30   16   17 1
    31   17   18 am
    32   17   51 1
    33   18   19 2
    34   18   20 1
    35   20   24 1
    36   20   21 2
    37   21   22 1
    38   21   31 1
    39   22   23 2
    40   23   24 1
    41   24   25 1
    42   25   29 2
    43   25   26 1
    44   26   27 2
    45   26   30 1
    46   27   28 1
    47   28   29 1
    48   30   52 1
    49   30   53 1
    50   31   32 1
    51   31   54 1
    52   31   55 1
    53   32   37 1
    54   32   33 1
    55   33   34 1
    56   33   56 1
    57   33   57 1
    58   34   35 1
    59   34   58 1
    60   34   59 1
    61   35   36 1
    62   36   37 1
    63   36   60 1
    64   36   61 1
    65   37   62 1
    66   37   63 1
@<TRIPOS>MOLECULE
ZINC17197410
   63    66     0     0     0
SMALL
USER_CHARGES
dimethyl (2R,10S)-2,10-bis(3-amino-5-oxo-imidazo[2,1-c][1,2,4]triazol-6-yl)undecanedioate
@<TRIPOS>ATOM
      1 C1        -10.3090    1.3028    6.4649 C.3       1 <0>         0.0315
      2 O1        -10.2954   -0.1491    6.4608 O.3       1 <0>        -0.3589
      3 C2         -9.7588   -0.7504    5.3873 C.2       1 <0>         0.4717
      4 O2         -9.3152   -0.0856    4.4812 O.2       1 <0>        -0.4745
      5 C3         -9.7097   -2.2547    5.3124 C.3       1 <0>        -0.0013
      6 H1         -9.1328   -2.6382    6.1669 H         1 <0>         0.1453
      7 C4         -9.0544   -2.6787    3.9964 C.3       1 <0>        -0.1030
      8 C5         -7.5933   -2.2249    3.9849 C.3       1 <0>        -0.1295
      9 C6         -6.9380   -2.6489    2.6689 C.3       1 <0>        -0.1172
     10 C7         -5.4768   -2.1951    2.6574 C.3       1 <0>        -0.1197
     11 C8         -4.8215   -2.6191    1.3415 C.3       1 <0>        -0.1172
     12 C9         -3.3604   -2.1653    1.3299 C.3       1 <0>        -0.1295
     13 C10        -2.7051   -2.5893    0.0140 C.3       1 <0>        -0.1030
     14 C11        -1.2439   -2.1355    0.0025 C.3       1 <0>        -0.0013
     15 H2         -0.7181   -2.5197    0.8890 H         1 <0>         0.1453
     16 C12        -0.5653   -2.6584   -1.2374 C.2       1 <0>         0.1160
     17 N1         -0.9056   -2.4071   -2.4734 N.2       1 <0>        -0.3034
     18 C13        -0.0732   -3.0415   -3.3148 C.2       1 <0>         0.2402
     19 N2          0.1967   -3.2516   -4.5934 N.2       1 <0>        -0.1139
     20 N3          1.2123   -4.0305   -4.7094 N.2       1 <0>        -0.3308
     21 C14         1.6619   -4.3722   -3.5108 C.2       1 <0>         0.5578
     22 N4          0.8564   -3.7524   -2.5900 N.am      1 <0>        -0.5651
     23 C15         0.5999   -3.5521   -1.2842 C.2       1 <0>         0.5458
     24 O3          1.2072   -4.0153   -0.3383 O.2       1 <0>        -0.4193
     25 N5          2.7264   -5.1871   -3.2429 N.pl3     1 <0>        -0.8054
     26 C16        -1.1855   -0.6297    0.0100 C.2       1 <0>         0.4717
     27 O4         -2.2076    0.0145    0.0232 O.2       1 <0>        -0.4745
     28 O5          0.0021   -0.0041    0.0020 O.3       1 <0>        -0.3589
     29 C17        -0.0176    1.4478    0.0100 C.3       1 <0>         0.0315
     30 C18       -11.1104   -2.8069    5.3767 C.2       1 <0>         0.1161
     31 N6        -12.0816   -2.5603    4.5384 N.2       1 <0>        -0.3034
     32 C19       -13.1870   -3.2258    4.9107 C.2       1 <0>         0.2402
     33 N7        -14.4510   -3.4578    4.5941 N.2       1 <0>        -0.1140
     34 N8        -14.9815   -4.2588    5.4476 N.2       1 <0>        -0.3307
     35 C20       -14.0913   -4.5943    6.3699 C.2       1 <0>         0.5578
     36 N9        -12.9247   -3.9462    6.0538 N.am      1 <0>        -0.5650
     37 C21       -11.6399   -3.7292    6.3906 C.2       1 <0>         0.5458
     38 O6        -11.0415   -4.1977    7.3396 O.2       1 <0>        -0.4193
     39 N10       -14.2966   -5.4280    7.4337 N.pl3     1 <0>        -0.8054
     40 H3        -10.7728    1.6625    7.3952 H         1 <0>         0.1047
     41 H4        -10.8871    1.6665    5.6026 H         1 <0>         0.0685
     42 H5         -9.2775    1.6793    6.4000 H         1 <0>         0.0691
     43 H6         -9.0991   -3.7736    3.9006 H         1 <0>         0.0839
     44 H7         -9.5891   -2.2149    3.1544 H         1 <0>         0.0921
     45 H8         -7.5487   -1.1300    4.0807 H         1 <0>         0.0841
     46 H9         -7.0586   -2.6887    4.8269 H         1 <0>         0.0633
     47 H10        -6.9827   -3.7438    2.5731 H         1 <0>         0.0609
     48 H11        -7.4727   -2.1851    1.8269 H         1 <0>         0.0664
     49 H12        -5.4322   -1.1002    2.7532 H         1 <0>         0.0643
     50 H13        -4.9422   -2.6589    3.4994 H         1 <0>         0.0605
     51 H14        -4.8662   -3.7140    1.2458 H         1 <0>         0.0609
     52 H15        -5.3562   -2.1553    0.4995 H         1 <0>         0.0664
     53 H16        -3.3158   -1.0704    1.4256 H         1 <0>         0.0841
     54 H17        -2.8257   -2.6291    2.1719 H         1 <0>         0.0633
     55 H18        -2.7498   -3.6842   -0.0818 H         1 <0>         0.0839
     56 H19        -3.2398   -2.1255   -0.8280 H         1 <0>         0.0921
     57 H20         3.0075   -5.4001   -2.2010 H         1 <0>         0.4512
     58 H21         3.3018   -5.6298   -4.0693 H         1 <0>         0.4673
     59 H22         1.0144    1.8285    0.0022 H         1 <0>         0.1047
     60 H23        -0.5325    1.8025    0.9150 H         1 <0>         0.0692
     61 H24        -0.5496    1.8122   -0.8812 H         1 <0>         0.0685
     62 H25       -13.4768   -5.6333    8.1378 H         1 <0>         0.4512
     63 H26       -15.2816   -5.8935    7.5856 H         1 <0>         0.4673
@<TRIPOS>BOND
     1    1    2 1
     2    1   40 1
     3    1   41 1
     4    1   42 1
     5    2    3 1
     6    3    4 2
     7    3    5 1
     8    5    6 1
     9    5    7 1
    10    5   30 1
    11    7    8 1
    12    7   43 1
    13    7   44 1
    14    8    9 1
    15    8   45 1
    16    8   46 1
    17    9   10 1
    18    9   47 1
    19    9   48 1
    20   10   11 1
    21   10   49 1
    22   10   50 1
    23   11   12 1
    24   11   51 1
    25   11   52 1
    26   12   13 1
    27   12   53 1
    28   12   54 1
    29   13   14 1
    30   13   55 1
    31   13   56 1
    32   14   15 1
    33   14   16 1
    34   14   26 1
    35   16   23 1
    36   16   17 2
    37   17   18 1
    38   18   22 1
    39   18   19 2
    40   19   20 1
    41   20   21 2
    42   21   22 1
    43   21   25 1
    44   22   23 am
    45   23   24 2
    46   25   57 1
    47   25   58 1
    48   26   27 2
    49   26   28 1
    50   28   29 1
    51   29   59 1
    52   29   60 1
    53   29   61 1
    54   30   37 1
    55   30   31 2
    56   31   32 1
    57   32   36 1
    58   32   33 2
    59   33   34 1
    60   34   35 2
    61   35   36 1
    62   35   39 1
    63   36   37 am
    64   37   38 2
    65   39   62 1
    66   39   63 1
@<TRIPOS>MOLECULE
ZINC31155377
   63    65     0     0     0
SMALL
USER_CHARGES

@<TRIPOS>ATOM
      1 C1         -0.0173    1.4248    0.0099 C.3       1 <0>         0.0225
      2 O1          0.0021   -0.0041    0.0020 O.3       1 <0>        -0.2963
      3 C2          0.6062   -0.6075   -1.0564 C.ar      1 <0>         0.1839
      4 C3          1.1728    0.1605   -2.0620 C.ar      1 <0>        -0.2612
      5 C4          1.7893   -0.4544   -3.1412 C.ar      1 <0>         0.1995
      6 C5          1.8398   -1.8381   -3.2167 C.ar      1 <0>        -0.2975
      7 C6          1.2741   -2.6089   -2.2127 C.ar      1 <0>         0.1852
      8 C7          0.6610   -1.9942   -1.1277 C.ar      1 <0>        -0.0007
      9 O2          0.1099   -2.7499   -0.1380 O.3       1 <0>        -0.3085
     10 C8         -1.2613   -3.1215   -0.2927 C.3       1 <0>         0.0334
     11 O3          1.3234   -3.9659   -2.2874 O.3       1 <0>        -0.2942
     12 C9          1.9736   -4.5297   -3.4282 C.3       1 <0>         0.0169
     13 O4          2.3445    0.3002   -4.1266 O.3       1 <0>        -0.2906
     14 C10         2.9631   -0.3988   -5.2086 C.3       1 <0>         0.2257
     15 H1          2.2484   -1.0950   -5.6475 H         1 <0>         0.0789
     16 C11         3.4171    0.6048   -6.2718 C.3       1 <0>         0.0606
     17 H2          4.1005    1.3260   -5.8237 H         1 <0>         0.0889
     18 C12         4.1322   -0.1461   -7.3993 C.3       1 <0>         0.0866
     19 H3          3.4349   -0.8321   -7.8801 H         1 <0>         0.0795
     20 C13         5.3036   -0.9368   -6.8084 C.3       1 <0>         0.0911
     21 H4          6.0252   -0.2467   -6.3712 H         1 <0>         0.0823
     22 C14         4.7768   -1.8808   -5.7245 C.3       1 <0>         0.1094
     23 H5          4.0860   -2.5965   -6.1702 H         1 <0>         0.0859
     24 O5          4.0961   -1.1219   -4.7231 O.3       1 <0>        -0.3711
     25 C15         5.9484   -2.6311   -5.0879 C.3       1 <0>         0.0800
     26 O6          5.4485   -3.5951   -4.1591 O.3       1 <0>        -0.3642
     27 C16         6.4669   -4.3549   -3.5052 C.3       1 <0>         0.2291
     28 H6          7.1727   -3.6780   -3.0237 H         1 <0>         0.0753
     29 C17         5.8289   -5.2623   -2.4501 C.3       1 <0>         0.1013
     30 H7          5.3406   -4.6511   -1.6911 H         1 <0>         0.0888
     31 C18         6.9192   -6.1165   -1.7958 C.3       1 <0>         0.1224
     32 H8          6.4647   -6.8046   -1.0831 H         1 <0>         0.0839
     33 C19         7.6496   -6.9121   -2.8820 C.3       1 <0>         0.0401
     34 H9          6.9508   -7.5948   -3.3655 H         1 <0>         0.0853
     35 C20         8.2173   -5.9410   -3.9204 C.3       1 <0>         0.0472
     36 O7          7.1557   -5.1561   -4.4673 O.3       1 <0>        -0.3906
     37 O8          8.7155   -7.6588   -2.2917 O.3       1 <0>        -0.5615
     38 O9          7.8473   -5.2686   -1.1163 O.3       1 <0>        -0.5581
     39 O10         4.8635   -6.1126   -3.0722 O.3       1 <0>        -0.5475
     40 O11         5.9350   -1.6975   -7.8403 O.3       1 <0>        -0.5471
     41 O12         4.6221    0.7900   -8.3615 O.3       1 <0>        -0.5527
     42 O13         2.2789    1.2893   -6.7992 O.3       1 <0>        -0.5529
     43 H10         1.0053    1.8021    0.0021 H         1 <0>         0.0602
     44 H11        -0.5445    1.7859   -0.8732 H         1 <0>         0.0589
     45 H12        -0.5275    1.7763    0.9067 H         1 <0>         0.1052
     46 H13         1.1337    1.2383   -2.0050 H         1 <0>         0.1441
     47 H14         2.3197   -2.3155   -4.0582 H         1 <0>         0.1443
     48 H15        -1.5742   -3.7199    0.5629 H         1 <0>         0.0923
     49 H16        -1.8765   -2.2237   -0.3527 H         1 <0>         0.0434
     50 H17        -1.3789   -3.7044   -1.2062 H         1 <0>         0.0433
     51 H18         3.0112   -4.1969   -3.4565 H         1 <0>         0.0645
     52 H19         1.9425   -5.6173   -3.3635 H         1 <0>         0.1078
     53 H20         1.4630   -4.2049   -4.3348 H         1 <0>         0.0571
     54 H21         6.5206   -3.1379   -5.8650 H         1 <0>         0.0960
     55 H22         6.5924   -1.9234   -4.5657 H         1 <0>         0.0648
     56 H23         8.9461   -5.2850   -3.4444 H         1 <0>         0.0671
     57 H24         8.7014   -6.5041   -4.7183 H         1 <0>         0.1019
     58 H25         9.2222   -8.1875   -2.9233 H         1 <0>         0.3880
     59 H26         8.5663   -5.7440   -0.6780 H         1 <0>         0.3971
     60 H27         4.1450   -5.6368   -3.5109 H         1 <0>         0.3863
     61 H28         6.2889   -1.1618   -8.5634 H         1 <0>         0.3962
     62 H29         3.9324    1.3297   -8.7716 H         1 <0>         0.3965
     63 H30         1.7756    1.7833   -6.1376 H         1 <0>         0.3959
@<TRIPOS>BOND
     1    1    2 1
     2    1   43 1
     3    1   44 1
     4    1   45 1
     5    2    3 1
     6    3    8 ar
     7    3    4 ar
     8    4    5 ar
     9    4   46 1
    10    5    6 ar
    11    5   13 1
    12    6    7 ar
    13    6   47 1
    14    7    8 ar
    15    7   11 1
    16    8    9 1
    17    9   10 1
    18   10   48 1
    19   10   49 1
    20   10   50 1
    21   11   12 1
    22   12   51 1
    23   12   52 1
    24   12   53 1
    25   13   14 1
    26   14   15 1
    27   14   24 1
    28   14   16 1
    29   16   17 1
    30   16   18 1
    31   16   42 1
    32   18   19 1
    33   18   20 1
    34   18   41 1
    35   20   21 1
    36   20   22 1
    37   20   40 1
    38   22   23 1
    39   22   24 1
    40   22   25 1
    41   25   26 1
    42   25   54 1
    43   25   55 1
    44   26   27 1
    45   27   28 1
    46   27   36 1
    47   27   29 1
    48   29   30 1
    49   29   31 1
    50   29   39 1
    51   31   32 1
    52   31   33 1
    53   31   38 1
    54   33   34 1
    55   33   35 1
    56   33   37 1
    57   35   36 1
    58   35   56 1
    59   35   57 1
    60   37   58 1
    61   38   59 1
    62   39   60 1
    63   40   61 1
    64   41   62 1
    65   42   63 1
@<TRIPOS>MOLECULE
ZINC49662077
   64    64     0     0     0
SMALL
USER_CHARGES

@<TRIPOS>ATOM
      1 C1         -0.0826    1.4842   -0.1004 C.3       1 <0>        -0.1849
      2 C2         -0.0374   -0.0396    0.0307 C.3       1 <0>         0.1374
      3 C3          0.8145   -0.4221    1.2427 C.3       1 <0>        -0.1847
      4 C4         -1.4576   -0.5780    0.2152 C.3       1 <0>        -0.1411
      5 O1          0.5357   -0.6025   -1.1511 O.3       1 <0>        -0.3578
      6 C5          1.7918   -0.2284   -1.4593 C.2       1 <0>         0.6598
      7 O2          2.3853    0.5546   -0.7443 O.2       1 <0>        -0.5399
      8 N1          2.3910   -0.7225   -2.5608 N.am      1 <0>        -0.7029
      9 C6          3.7578   -0.3155   -2.8961 C.3       1 <0>         0.1893
     10 H1          4.0708   -0.8144   -3.8133 H         1 <0>         0.1303
     11 C7          4.7004   -0.7060   -1.7560 C.3       1 <0>        -0.1362
     12 C8          4.7502   -2.2303   -1.6348 C.3       1 <0>        -0.1048
     13 C9          5.6929   -2.6208   -0.4947 C.3       1 <0>         0.0712
     14 N2          5.7406   -4.0804   -0.3786 N.2       1 <0>        -0.5787
     15 C10         6.8604   -4.7144   -0.5858 C.2       1 <0>         0.5866
     16 N3          6.8788   -6.0890   -0.6047 N.pl3     1 <0>        -0.5464
     17 N4          5.6939   -6.8083   -0.4013 N.pl3     1 <0>         0.2092
     18 O3          4.6552   -6.2202   -0.2091 O.2       1 <0>        -0.0793
     19 O4          5.7101   -8.0170   -0.4179 O.3       1 <0>        -0.1878
     20 N5          8.0232   -4.0085   -0.7855 N.pl3     1 <0>        -0.8756
     21 C11         3.8026    1.1775   -3.0960 C.2       1 <0>         0.4436
     22 O5          2.9300    1.8751   -2.6357 O.2       1 <0>        -0.4672
     23 O6          4.8119    1.7324   -3.7852 O.3       1 <0>        -0.3499
     24 C12         4.7907    3.1533   -3.9358 C.3       1 <0>         0.0821
     25 C13         6.0114    3.5988   -4.7435 C.3       1 <0>         0.1086
     26 H2          6.9182    3.2258   -4.2673 H         1 <0>         0.0903
     27 C14         6.0561    5.1281   -4.7994 C.3       1 <0>         0.0936
     28 H3          6.1697    5.5263   -3.7912 H         1 <0>         0.0724
     29 C15         7.2460    5.5652   -5.6594 C.3       1 <0>         0.0840
     30 H4          8.1739    5.2322   -5.1943 H         1 <0>         0.0856
     31 C16         7.1153    4.9361   -7.0499 C.3       1 <0>         0.0624
     32 H5          7.9862    5.1971   -7.6511 H         1 <0>         0.0721
     33 C17         7.0296    3.4143   -6.9070 C.3       1 <0>         0.2279
     34 H6          6.8935    2.9640   -7.8903 H         1 <0>         0.1057
     35 O7          5.9210    3.0771   -6.0708 O.3       1 <0>        -0.3664
     36 O8          8.2361    2.9221   -6.3204 O.3       1 <0>        -0.5772
     37 O9          5.9324    5.4246   -7.6857 O.3       1 <0>        -0.5196
     38 O10         7.2540    6.9894   -5.7759 O.3       1 <0>        -0.5536
     39 O11         4.8438    5.6205   -5.3737 O.3       1 <0>        -0.5325
     40 H7          0.9291    1.8677   -0.2318 H         1 <0>         0.0916
     41 H8         -0.6895    1.7567   -0.9638 H         1 <0>         0.0572
     42 H9         -0.5197    1.9136    0.8011 H         1 <0>         0.0668
     43 H10         0.3774    0.0073    2.1441 H         1 <0>         0.0683
     44 H11         0.8467   -1.5076    1.3361 H         1 <0>         0.0606
     45 H12         1.8263   -0.0385    1.1112 H         1 <0>         0.0867
     46 H13        -2.0645   -0.3054   -0.6482 H         1 <0>         0.0657
     47 H14        -1.4253   -1.6635    0.3086 H         1 <0>         0.0672
     48 H15        -1.8947   -0.1486    1.1167 H         1 <0>         0.0799
     49 H16         1.9173   -1.3476   -3.1316 H         1 <0>         0.4150
     50 H17         5.7002   -0.3252   -1.9646 H         1 <0>         0.0829
     51 H18         4.3367   -0.2789   -0.8214 H         1 <0>         0.0999
     52 H19         3.7504   -2.6111   -1.4262 H         1 <0>         0.0794
     53 H20         5.1140   -2.6574   -2.5694 H         1 <0>         0.0620
     54 H21         6.6927   -2.2400   -0.7033 H         1 <0>         0.0351
     55 H22         5.3291   -2.1937    0.4399 H         1 <0>         0.0832
     56 H23         8.0416   -3.0509   -0.6324 H         1 <0>         0.4221
     57 H24         8.8252   -4.4682   -1.0794 H         1 <0>         0.3989
     58 H25         3.8813    3.4497   -4.4586 H         1 <0>         0.0884
     59 H26         4.8143    3.6233   -2.9527 H         1 <0>         0.0840
     60 H27         8.2519    1.9628   -6.1997 H         1 <0>         0.3918
     61 H28         5.7861    5.0671   -8.5722 H         1 <0>         0.3755
     62 H29         7.9826    7.3363   -6.3087 H         1 <0>         0.3854
     63 H30         4.8033    6.5844   -5.4402 H         1 <0>         0.3857
     64 H31         7.7122   -6.5608   -0.7589 H         1 <0>         0.4410
@<TRIPOS>BOND
     1    1    2 1
     2    1   40 1
     3    1   41 1
     4    1   42 1
     5    2    3 1
     6    2    4 1
     7    2    5 1
     8    3   43 1
     9    3   44 1
    10    3   45 1
    11    4   46 1
    12    4   47 1
    13    4   48 1
    14    5    6 1
    15    6    7 2
    16    6    8 am
    17    8    9 1
    18    8   49 1
    19    9   10 1
    20    9   11 1
    21    9   21 1
    22   11   12 1
    23   11   50 1
    24   11   51 1
    25   12   13 1
    26   12   52 1
    27   12   53 1
    28   13   14 1
    29   13   54 1
    30   13   55 1
    31   14   15 2
    32   15   16 1
    33   15   20 1
    34   16   17 1
    35   16   64 1
    36   17   18 2
    37   17   19 1
    38   20   56 1
    39   20   57 1
    40   21   22 2
    41   21   23 1
    42   23   24 1
    43   24   25 1
    44   24   58 1
    45   24   59 1
    46   25   26 1
    47   25   35 1
    48   25   27 1
    49   27   28 1
    50   27   29 1
    51   27   39 1
    52   29   30 1
    53   29   31 1
    54   29   38 1
    55   31   32 1
    56   31   33 1
    57   31   37 1
    58   33   34 1
    59   33   35 1
    60   33   36 1
    61   36   60 1
    62   37   61 1
    63   38   62 1
    64   39   63 1
@<TRIPOS>MOLECULE
ZINC09367773
   44    47     0     0     0
SMALL
USER_CHARGES
8-[2-(2,4-dimethylphenyl)amino-6H-1,3,4-thiadiazin-5-yl]-2-oxa-5-azabicyclo[4.4.0]deca-7,9,11-trien-4-one
@<TRIPOS>ATOM
      1 C1          6.9957    9.4675   -1.1268 C.3       1 <0>        -0.1143
      2 C2          5.6259    8.9923   -0.7156 C.ar      1 <0>        -0.0951
      3 C3          5.4653    7.7241   -0.1875 C.ar      1 <0>        -0.1041
      4 C4          4.2116    7.2855    0.1899 C.ar      1 <0>        -0.1111
      5 C5          3.1109    8.1197    0.0390 C.ar      1 <0>         0.1374
      6 C6          3.2750    9.3908   -0.4962 C.ar      1 <0>        -0.1081
      7 C7          4.5327    9.8253   -0.8667 C.ar      1 <0>        -0.1023
      8 C8          2.0831   10.2970   -0.6670 C.3       1 <0>        -0.1173
      9 N1          1.8401    7.6786    0.4196 N.pl3     1 <0>        -0.6070
     10 C9          1.5614    6.3330    0.4537 C.2       1 <0>         0.3392
     11 N2          2.4437    5.4653    0.0183 N.2       1 <0>        -0.3504
     12 N3          2.2795    4.2054   -0.0057 N.2       1 <0>        -0.2490
     13 C10         1.1601    3.5634    0.0197 C.2       1 <0>         0.1082
     14 C11        -0.1696    4.2769    0.0517 C.3       1 <0>        -0.0997
     15 S1          0.0133    5.7623    1.0847 S.3       1 <0>        -0.0919
     16 C12         1.1806    2.0922    0.0110 C.ar      1 <0>        -0.0282
     17 C13        -0.0194    1.3740    0.0381 C.ar      1 <0>        -0.0895
     18 C14        -0.0001   -0.0050    0.0297 C.ar      1 <0>        -0.1052
     19 C15         1.2083   -0.6832   -0.0057 C.ar      1 <0>         0.0911
     20 C16         2.4102    0.0265   -0.0322 C.ar      1 <0>         0.0921
     21 C17         2.4004    1.4081   -0.0238 C.ar      1 <0>        -0.0789
     22 N4          3.6220   -0.6788   -0.0663 N.am      1 <0>        -0.6597
     23 C18         3.6075   -1.9900   -0.3907 C.2       1 <0>         0.4906
     24 O1          4.6397   -2.6269   -0.3986 O.2       1 <0>        -0.5063
     25 C19         2.3030   -2.6584   -0.7432 C.3       1 <0>         0.0501
     26 O2          1.2362   -2.0431   -0.0166 O.3       1 <0>        -0.2995
     27 H1          7.1720    9.2081   -2.1707 H         1 <0>         0.0702
     28 H2          7.0565   10.5490   -1.0060 H         1 <0>         0.0658
     29 H3          7.7492    8.9890   -0.5013 H         1 <0>         0.0667
     30 H4          6.3213    7.0762   -0.0704 H         1 <0>         0.1257
     31 H5          4.0867    6.2949    0.6016 H         1 <0>         0.1539
     32 H6          4.6616   10.8150   -1.2792 H         1 <0>         0.1263
     33 H7          1.9477   10.8932    0.2354 H         1 <0>         0.0725
     34 H8          2.2483   10.9581   -1.5178 H         1 <0>         0.0746
     35 H9          1.1913    9.6953   -0.8422 H         1 <0>         0.0609
     36 H10         1.1551    8.3220    0.6596 H         1 <0>         0.4243
     37 H11        -0.4584    4.5621   -0.9599 H         1 <0>         0.1167
     38 H12        -0.9281    3.6218    0.4804 H         1 <0>         0.1455
     39 H13        -0.9624    1.9001    0.0610 H         1 <0>         0.1397
     40 H14        -0.9279   -0.5573    0.0505 H         1 <0>         0.1471
     41 H15         3.3301    1.9574   -0.0443 H         1 <0>         0.1482
     42 H16         4.4579   -0.2318    0.1396 H         1 <0>         0.4189
     43 H17         2.1201   -2.5555   -1.8129 H         1 <0>         0.1033
     44 H18         2.3554   -3.7158   -0.4841 H         1 <0>         0.1489
@<TRIPOS>BOND
     1    1    2 1
     2    1   27 1
     3    1   28 1
     4    1   29 1
     5    2    7 ar
     6    2    3 ar
     7    3    4 ar
     8    3   30 1
     9    4    5 ar
    10    4   31 1
    11    5    6 ar
    12    5    9 1
    13    6    7 ar
    14    6    8 1
    15    7   32 1
    16    8   33 1
    17    8   34 1
    18    8   35 1
    19    9   10 1
    20    9   36 1
    21   10   15 1
    22   10   11 2
    23   11   12 1
    24   12   13 2
    25   13   14 1
    26   13   16 1
    27   14   15 1
    28   14   37 1
    29   14   38 1
    30   16   21 ar
    31   16   17 ar
    32   17   18 ar
    33   17   39 1
    34   18   19 ar
    35   18   40 1
    36   19   26 1
    37   19   20 ar
    38   20   21 ar
    39   20   22 1
    40   21   41 1
    41   22   23 am
    42   22   42 1
    43   23   24 2
    44   23   25 1
    45   25   26 1
    46   25   43 1
    47   25   44 1
@<TRIPOS>MOLECULE
ZINC38980557
   36    38     0     0     0
SMALL
USER_CHARGES

@<TRIPOS>ATOM
      1 C1         -0.0184    1.5028    0.0103 C.3       1 <0>        -0.0885
      2 C2          0.0021   -0.0041    0.0020 C.2       1 <0>        -0.0406
      3 C3         -1.0863   -0.7768    0.0030 C.2       1 <0>        -0.1521
      4 C4         -0.5311   -2.1901   -0.0073 C.3       1 <0>        -0.0333
      5 H1         -0.8370   -2.7309    0.8883 H         1 <0>         0.1592
      6 N1          0.9257   -1.9734   -0.0130 N.2       1 <0>        -0.1254
      7 N2          1.1248   -0.7562   -0.0132 N.2       1 <0>        -0.1701
      8 C5         -0.9759   -2.9370   -1.2664 C.3       1 <0>         0.3435
      9 H2         -0.5544   -2.4604   -2.1514 H         1 <0>         0.0692
     10 N3         -2.4540   -2.9504   -1.3528 N.3       1 <0>        -0.4691
     11 N4         -2.7763   -4.2780   -1.8993 N.3       1 <0>        -0.4717
     12 C6         -1.7762   -5.1607   -1.2435 C.3       1 <0>         0.3083
     13 H3         -1.6145   -6.0605   -1.8371 H         1 <0>         0.1110
     14 N5         -0.5449   -4.3443   -1.1972 N.pl3     1 <0>        -0.5331
     15 N6          0.7715   -4.8147   -1.1053 N.2       1 <0>        -0.1305
     16 C7          1.0024   -6.0903   -1.0520 C.2       1 <0>         0.0610
     17 C8          2.3882   -6.5855   -0.9552 C.ar      1 <0>        -0.0294
     18 C9          2.6406   -7.9585   -0.9034 C.ar      1 <0>        -0.0706
     19 C10         3.9386   -8.4151   -0.8134 C.ar      1 <0>        -0.1100
     20 C11         4.9917   -7.5162   -0.7743 C.ar      1 <0>        -0.0151
     21 C12         4.7495   -6.1541   -0.8247 C.ar      1 <0>        -0.1078
     22 C13         3.4552   -5.6834   -0.9207 C.ar      1 <0>        -0.0100
     23 Cl1         3.1533   -3.9753   -0.9916 Cl        1 <0>         0.0037
     24 Cl2         6.6226   -8.1002   -0.6610 Cl        1 <0>        -0.0549
     25 S1         -2.3167   -5.5965    0.4323 S.3       1 <0>        -0.2063
     26 H4          1.0042    1.8801    0.0026 H         1 <0>         0.0785
     27 H5         -0.5455    1.8639   -0.8728 H         1 <0>         0.0773
     28 H6         -0.5286    1.8543    0.9071 H         1 <0>         0.0786
     29 H7         -2.1213   -0.4684    0.0099 H         1 <0>         0.1745
     30 H8         -2.7872   -2.2180   -1.9616 H         1 <0>         0.3640
     31 H9         -2.6684   -4.2921   -2.9024 H         1 <0>         0.3271
     32 H10         0.1797   -6.7896   -1.0785 H         1 <0>         0.1273
     33 H11         1.8207   -8.6608   -0.9335 H         1 <0>         0.1462
     34 H12         4.1347   -9.4764   -0.7730 H         1 <0>         0.1441
     35 H13         5.5751   -5.4584   -0.7934 H         1 <0>         0.1467
     36 H14        -3.4726   -6.2569    0.2400 H         1 <0>         0.0980
@<TRIPOS>BOND
     1    1    2 1
     2    1   26 1
     3    1   27 1
     4    1   28 1
     5    2    7 1
     6    2    3 2
     7    3    4 1
     8    3   29 1
     9    4    5 1
    10    4    6 1
    11    4    8 1
    12    6    7 2
    13    8    9 1
    14    8   14 1
    15    8   10 1
    16   10   11 1
    17   10   30 1
    18   11   12 1
    19   11   31 1
    20   12   13 1
    21   12   14 1
    22   12   25 1
    23   14   15 1
    24   15   16 2
    25   16   17 1
    26   16   32 1
    27   17   22 ar
    28   17   18 ar
    29   18   19 ar
    30   18   33 1
    31   19   20 ar
    32   19   34 1
    33   20   21 ar
    34   20   24 1
    35   21   22 ar
    36   21   35 1
    37   22   23 1
    38   25   36 1
@<TRIPOS>MOLECULE
ZINC08404688
   51    55     0     0     0
SMALL
USER_CHARGES

@<TRIPOS>ATOM
      1 C1         -0.0299    1.3504    0.0458 C.ar      1 <0>        -0.1036
      2 C2          1.1517    2.0706    0.0380 C.ar      1 <0>        -0.1170
      3 C3          2.3639    1.4130    0.0151 C.ar      1 <0>        -0.0993
      4 C4          2.3969    0.0163    0.0002 C.ar      1 <0>        -0.0526
      5 C5          1.1999   -0.7042    0.0087 C.ar      1 <0>        -0.0855
      6 C6         -0.0049   -0.0332    0.0311 C.ar      1 <0>        -0.1122
      7 C7          3.6897   -0.6944   -0.0248 C.2       1 <0>         0.1869
      8 C8          3.9999   -1.7687   -0.8421 C.2       1 <0>        -0.1443
      9 C9          5.3871   -2.1456   -0.5227 C.ar      1 <0>        -0.0730
     10 C10         6.2503   -3.1321   -0.9990 C.ar      1 <0>        -0.0621
     11 C11         7.5235   -3.2310   -0.4840 C.ar      1 <0>        -0.1386
     12 C12         7.9490   -2.3550    0.5048 C.ar      1 <0>        -0.0944
     13 C13         7.1075   -1.3759    0.9852 C.ar      1 <0>        -0.1289
     14 C14         5.8167   -1.2578    0.4779 C.ar      1 <0>         0.0942
     15 N1          4.7777   -0.3931    0.7531 N.pl3     1 <0>        -0.5732
     16 H1          4.8113    0.3240    1.4054 H         1 <0>         0.4214
     17 C15         3.1205   -2.4055   -1.8296 C.2       1 <0>         0.1736
     18 N2          3.5514   -3.4132   -2.5300 N.2       1 <0>        -0.2457
     19 N3          2.6807   -4.0878   -3.3958 N.am      1 <0>        -0.4332
     20 C16         1.4147   -3.6988   -3.6528 C.2       1 <0>         0.5048
     21 O1          0.8356   -2.7361   -3.1962 O.2       1 <0>        -0.4619
     22 C17         0.8704   -4.7156   -4.6297 C.3       1 <0>         0.1261
     23 C18         0.4904   -4.0406   -5.9431 C.3       1 <0>        -0.1145
     24 C19        -0.0293   -5.0912   -6.9277 C.3       1 <0>        -0.1172
     25 C20        -1.2471   -5.7948   -6.3253 C.3       1 <0>        -0.1253
     26 C21        -0.8448   -6.4865   -5.0211 C.3       1 <0>        -0.1172
     27 C22        -0.3284   -5.4413   -4.0290 C.3       1 <0>        -0.1139
     28 N4          1.9869   -5.6472   -4.8338 N.am      1 <0>        -0.7124
     29 C23         3.0036   -5.1953   -4.0750 C.2       1 <0>         0.7217
     30 O2          4.0911   -5.7344   -4.0112 O.2       1 <0>        -0.5128
     31 H2         -0.9761    1.8705    0.0680 H         1 <0>         0.1278
     32 H3          1.1247    3.1502    0.0496 H         1 <0>         0.1291
     33 H4          3.2853    1.9763    0.0084 H         1 <0>         0.1249
     34 H5          1.2179   -1.7840   -0.0031 H         1 <0>         0.1272
     35 H6         -0.9310   -0.5888    0.0372 H         1 <0>         0.1305
     36 H7          5.9215   -3.8155   -1.7678 H         1 <0>         0.1368
     37 H8          8.1940   -3.9940   -0.8510 H         1 <0>         0.1267
     38 H9          8.9497   -2.4419    0.9017 H         1 <0>         0.1282
     39 H10         7.4491   -0.7002    1.7553 H         1 <0>         0.1227
     40 H11         2.1156   -2.0373   -1.9747 H         1 <0>         0.1573
     41 H12        -0.2874   -3.2996   -5.7587 H         1 <0>         0.0912
     42 H13         1.3669   -3.5492   -6.3656 H         1 <0>         0.0748
     43 H14        -0.3149   -4.6052   -7.8606 H         1 <0>         0.0760
     44 H15         0.7534   -5.8239   -7.1242 H         1 <0>         0.0658
     45 H16        -2.0267   -5.0607   -6.1216 H         1 <0>         0.0689
     46 H17        -1.6227   -6.5373   -7.0293 H         1 <0>         0.0704
     47 H18        -1.7111   -6.9938   -4.5966 H         1 <0>         0.0761
     48 H19        -0.0596   -7.2150   -5.2232 H         1 <0>         0.0659
     49 H20        -0.0281   -5.9352   -3.1048 H         1 <0>         0.0749
     50 H21        -1.1188   -4.7217   -3.8154 H         1 <0>         0.0911
     51 H22         1.9923   -6.4311   -5.4052 H         1 <0>         0.4439
@<TRIPOS>BOND
     1    1    6 ar
     2    1    2 ar
     3    1   31 1
     4    2    3 ar
     5    2   32 1
     6    3    4 ar
     7    3   33 1
     8    4    5 ar
     9    4    7 1
    10    5    6 ar
    11    5   34 1
    12    6   35 1
    13    7   15 1
    14    7    8 2
    15    8    9 1
    16    8   17 1
    17    9   14 ar
    18    9   10 ar
    19   10   11 ar
    20   10   36 1
    21   11   12 ar
    22   11   37 1
    23   12   13 ar
    24   12   38 1
    25   13   14 ar
    26   13   39 1
    27   14   15 1
    28   15   16 1
    29   17   18 2
    30   17   40 1
    31   18   19 1
    32   19   29 am
    33   19   20 am
    34   20   21 2
    35   20   22 1
    36   22   27 1
    37   22   23 1
    38   22   28 1
    39   23   24 1
    40   23   41 1
    41   23   42 1
    42   24   25 1
    43   24   43 1
    44   24   44 1
    45   25   26 1
    46   25   45 1
    47   25   46 1
    48   26   27 1
    49   26   47 1
    50   26   48 1
    51   27   49 1
    52   27   50 1
    53   28   29 am
    54   28   51 1
    55   29   30 2
@<TRIPOS>MOLECULE
ZINC03463515
   59    61     0     0     0
SMALL
USER_CHARGES

@<TRIPOS>ATOM
      1 C1         -0.0187    1.5256    0.0104 C.3       1 <0>        -0.1319
      2 C2          1.4163    2.0561   -0.0004 C.3       1 <0>        -0.1208
      3 C3          2.2446    1.2650   -1.0151 C.3       1 <0>        -0.1375
      4 C4          1.8925    1.7261   -2.4309 C.3       1 <0>        -0.1247
      5 C5          0.5389    1.1392   -2.8362 C.3       1 <0>         0.1357
      6 C6          0.4780   -0.3339   -2.4279 C.3       1 <0>        -0.1353
      7 C7         -0.5658   -0.5146   -1.3239 C.3       1 <0>        -0.1195
      8 C8          0.0021   -0.0041    0.0020 C.3       1 <0>        -0.1280
      9 N1          0.3733    1.2508   -4.2875 N.am      1 <0>        -0.7246
     10 C9         -0.8625    1.2861   -4.8240 C.2       1 <0>         0.4990
     11 O1         -1.8376    1.2256   -4.1053 O.2       1 <0>        -0.5218
     12 C10        -1.0329    1.4009   -6.3170 C.3       1 <0>         0.1010
     13 N2         -2.4553    1.4191   -6.6444 N.am      1 <0>        -0.5745
     14 C11        -3.2214    0.3282   -6.8676 C.2       1 <0>         0.5298
     15 O2         -3.0147   -0.8125   -6.5342 O.2       1 <0>        -0.4470
     16 C12        -4.3927    0.8551   -7.6787 C.3       1 <0>         0.1522
     17 C13        -3.9702    0.9296   -9.1447 C.3       1 <0>        -0.1129
     18 C14        -5.1767    1.0607  -10.0739 C.3       1 <0>        -0.1278
     19 C15        -5.6733    2.5123  -10.1996 C.3       1 <0>        -0.1147
     20 C16        -6.4607    2.8683   -8.9258 C.3       1 <0>        -0.1345
     21 C17        -7.3591    1.6947   -8.5302 C.3       1 <0>        -0.1199
     22 C18        -6.8637    1.0197   -7.2559 C.3       1 <0>        -0.1186
     23 C19        -5.6775    0.0840   -7.4838 C.3       1 <0>        -0.1132
     24 N3         -4.4818    2.2008   -7.0738 N.am      1 <0>        -0.7362
     25 C20        -3.2106    2.5210   -6.7319 C.2       1 <0>         0.7107
     26 O3         -2.8188    3.6476   -6.5330 O.2       1 <0>        -0.5256
     27 H1         -0.5291    1.8770    0.9072 H         1 <0>         0.0599
     28 H2         -0.5460    1.8866   -0.8726 H         1 <0>         0.0706
     29 H3          1.4119    3.1102   -0.2778 H         1 <0>         0.0618
     30 H4          1.8529    1.9433    0.9919 H         1 <0>         0.0621
     31 H5          3.3052    1.4360   -0.8305 H         1 <0>         0.0647
     32 H6          2.0248    0.2022   -0.9138 H         1 <0>         0.0897
     33 H7          1.8387    2.8145   -2.4558 H         1 <0>         0.0693
     34 H8          2.6595    1.3841   -3.1257 H         1 <0>         0.0673
     35 H9         -0.2593    1.6880   -2.3364 H         1 <0>         0.1013
     36 H10         0.2020   -0.9391   -3.2914 H         1 <0>         0.0638
     37 H11         1.4543   -0.6496   -2.0601 H         1 <0>         0.0767
     38 H12        -1.4633    0.0500   -1.5763 H         1 <0>         0.0702
     39 H13        -0.8156   -1.5714   -1.2294 H         1 <0>         0.0601
     40 H14         1.0279   -0.3542    0.1167 H         1 <0>         0.0725
     41 H15        -0.6044   -0.3802    0.8259 H         1 <0>         0.0591
     42 H16         1.1532    1.2992   -4.8624 H         1 <0>         0.3995
     43 H17        -0.5679    2.3229   -6.6659 H         1 <0>         0.1278
     44 H18        -0.5590    0.5483   -6.8033 H         1 <0>         0.1210
     45 H19        -3.3099    1.7878   -9.2842 H         1 <0>         0.0780
     46 H20        -3.4198    0.0197   -9.3996 H         1 <0>         0.0821
     47 H21        -4.8633    0.7388  -11.0828 H         1 <0>         0.0600
     48 H22        -5.9768    0.4036   -9.7696 H         1 <0>         0.0854
     49 H23        -4.8208    3.1785  -10.2958 H         1 <0>         0.0638
     50 H24        -6.3257    2.5986  -11.0636 H         1 <0>         0.0656
     51 H25        -5.8170    3.2215   -8.1610 H         1 <0>         0.0796
     52 H26        -7.1335    3.7075   -9.2008 H         1 <0>         0.0505
     53 H27        -8.3668    2.0973   -8.3336 H         1 <0>         0.0585
     54 H28        -7.4545    0.9831   -9.3412 H         1 <0>         0.0771
     55 H29        -6.6155    1.7697   -6.5056 H         1 <0>         0.0636
     56 H30        -7.6929    0.4225   -6.8408 H         1 <0>         0.0697
     57 H31        -5.8752   -0.5642   -8.3386 H         1 <0>         0.0939
     58 H32        -5.5779   -0.5692   -6.6023 H         1 <0>         0.0795
     59 H33        -5.2503    2.7196   -6.8391 H         1 <0>         0.4358
@<TRIPOS>BOND
     1    1    8 1
     2    1    2 1
     3    1   27 1
     4    1   28 1
     5    2    3 1
     6    2   29 1
     7    2   30 1
     8    3    4 1
     9    3   31 1
    10    3   32 1
    11    4    5 1
    12    4   33 1
    13    4   34 1
    14    5    6 1
    15    5    9 1
    16    5   35 1
    17    6    7 1
    18    6   36 1
    19    6   37 1
    20    7    8 1
    21    7   38 1
    22    7   39 1
    23    8   40 1
    24    8   41 1
    25    9   10 am
    26    9   42 1
    27   10   11 2
    28   10   12 1
    29   12   13 1
    30   12   43 1
    31   12   44 1
    32   13   25 am
    33   13   14 am
    34   14   15 2
    35   14   16 1
    36   16   23 1
    37   16   17 1
    38   16   24 1
    39   17   18 1
    40   17   45 1
    41   17   46 1
    42   18   19 1
    43   18   47 1
    44   18   48 1
    45   19   20 1
    46   19   49 1
    47   19   50 1
    48   20   21 1
    49   20   51 1
    50   20   52 1
    51   21   22 1
    52   21   53 1
    53   21   54 1
    54   22   23 1
    55   22   55 1
    56   22   56 1
    57   23   57 1
    58   23   58 1
    59   24   25 am
    60   24   59 1
    61   25   26 2
@<TRIPOS>MOLECULE
ZINC64663105
   40    42     0     0     0
SMALL
USER_CHARGES

@<TRIPOS>ATOM
      1 C1         -0.7137    1.3232    0.1110 C.3       1 <0>        -0.1166
      2 C2         -0.0351   -0.0186    0.0101 C.ar      1 <0>        -0.0947
      3 C3         -0.0282   -0.6952   -1.1905 C.ar      1 <0>        -0.0582
      4 C4          0.6004   -1.9391   -1.2858 C.ar      1 <0>        -0.1587
      5 C5          1.2207   -2.4902   -0.1563 C.ar      1 <0>         0.1957
      6 C6          1.2043   -1.7954    1.0445 C.ar      1 <0>        -0.1283
      7 C7          0.5837   -0.5634    1.1231 C.ar      1 <0>        -0.0472
      8 Br1         2.0387   -2.5318    2.5733 Br        1 <0>        -0.0222
      9 O1          1.8340   -3.6978   -0.2366 O.3       1 <0>        -0.4640
     10 C8          0.6109   -2.6686   -2.5679 C.2       1 <0>         0.5640
     11 O2          1.1591   -3.7512   -2.6470 O.2       1 <0>        -0.4928
     12 N1          0.0128   -2.1353   -3.6516 N.am      1 <0>        -0.6678
     13 C9          0.1057   -2.7802   -4.8909 C.ar      1 <0>         0.1556
     14 C10         0.1124   -4.1694   -4.9514 C.ar      1 <0>        -0.1060
     15 C11         0.2037   -4.8111   -6.1700 C.ar      1 <0>        -0.0832
     16 C12         0.2890   -4.0689   -7.3384 C.ar      1 <0>         0.0793
     17 C13         0.2825   -2.6737   -7.2811 C.ar      1 <0>         0.1092
     18 C14         0.1850   -2.0322   -6.0562 C.ar      1 <0>        -0.1307
     19 N2          0.3789   -2.2162   -8.5932 N.am      1 <0>        -0.5417
     20 C15         0.4413   -3.2832   -9.4117 C.2       1 <0>         0.6787
     21 O3          0.5306   -3.2318  -10.6243 O.2       1 <0>        -0.5526
     22 N3          0.3893   -4.4157   -8.6855 N.am      1 <0>        -0.5413
     23 C16         0.4318   -5.7794   -9.2192 C.3       1 <0>         0.0995
     24 C17         0.4072   -0.8124   -9.0114 C.3       1 <0>         0.0995
     25 H1          0.0015    2.1108   -0.1261 H         1 <0>         0.0780
     26 H2         -1.5452    1.3636   -0.5926 H         1 <0>         0.0734
     27 H3         -1.0883    1.4656    1.1246 H         1 <0>         0.0738
     28 H4         -0.5086   -0.2644   -2.0566 H         1 <0>         0.1367
     29 H5          0.5775   -0.0240    2.0587 H         1 <0>         0.1438
     30 H6          2.7684   -3.6489   -0.4807 H         1 <0>         0.4012
     31 H7         -0.4819   -1.3046   -3.5730 H         1 <0>         0.4101
     32 H8          0.0463   -4.7481   -4.0419 H         1 <0>         0.1515
     33 H9          0.2090   -5.8902   -6.2135 H         1 <0>         0.1364
     34 H10         0.1753   -0.9533   -6.0090 H         1 <0>         0.1342
     35 H11        -0.5825   -6.1198   -9.4273 H         1 <0>         0.0707
     36 H12         1.0151   -5.7912  -10.1399 H         1 <0>         0.0880
     37 H13         0.8944   -6.4416   -8.4875 H         1 <0>         0.0846
     38 H14         1.4390   -0.4623   -9.0391 H         1 <0>         0.0704
     39 H15        -0.0347   -0.7199  -10.0035 H         1 <0>         0.0887
     40 H16        -0.1618   -0.2106   -8.3028 H         1 <0>         0.0830
@<TRIPOS>BOND
     1    1    2 1
     2    1   25 1
     3    1   26 1
     4    1   27 1
     5    2    7 ar
     6    2    3 ar
     7    3    4 ar
     8    3   28 1
     9    4    5 ar
    10    4   10 1
    11    5    6 ar
    12    5    9 1
    13    6    7 ar
    14    6    8 1
    15    7   29 1
    16    9   30 1
    17   10   11 2
    18   10   12 am
    19   12   13 1
    20   12   31 1
    21   13   18 ar
    22   13   14 ar
    23   14   15 ar
    24   14   32 1
    25   15   16 ar
    26   15   33 1
    27   16   22 1
    28   16   17 ar
    29   17   18 ar
    30   17   19 1
    31   18   34 1
    32   19   20 am
    33   19   24 1
    34   20   21 2
    35   20   22 am
    36   22   23 1
    37   23   35 1
    38   23   36 1
    39   23   37 1
    40   24   38 1
    41   24   39 1
    42   24   40 1
@<TRIPOS>MOLECULE
ZINC00685678
   54    58     0     0     0
SMALL
USER_CHARGES
(2-bromophenyl)-(4-methoxyphenyl)-BLAHone
@<TRIPOS>ATOM
      1 C1         12.1395   -1.4855   -2.9851 C.3       1 <0>         0.0264
      2 O1         11.2106   -0.6835   -3.7170 O.3       1 <0>        -0.3175
      3 C2          9.8909   -0.8702   -3.4513 C.ar      1 <0>         0.1284
      4 C3          8.9343   -0.1252   -4.1254 C.ar      1 <0>        -0.1491
      5 C4          7.5934   -0.3173   -3.8539 C.ar      1 <0>        -0.0701
      6 C5          7.2046   -1.2510   -2.9112 C.ar      1 <0>        -0.1188
      7 C6          8.1564   -1.9908   -2.2340 C.ar      1 <0>        -0.0718
      8 C7          9.4982   -1.8065   -2.5059 C.ar      1 <0>        -0.2053
      9 C8          5.7413   -1.4585   -2.6169 C.3       1 <0>        -0.0298
     10 H1          5.1425   -0.7809   -3.2257 H         1 <0>         0.0875
     11 C9          5.4682   -1.2019   -1.1359 C.3       1 <0>        -0.1057
     12 C10         3.9963   -1.4266   -0.8341 C.2       1 <0>         0.2635
     13 C11         3.2946   -2.3518   -1.5120 C.2       1 <0>        -0.3014
     14 C12         1.8360   -2.6822   -1.3075 C.3       1 <0>         0.2728
     15 H2          1.7323   -3.7658   -1.2503 H         1 <0>         0.1037
     16 N1          1.2484   -2.1053   -0.1172 N.pl3     1 <0>        -0.7618
     17 C13         1.1244   -0.7238    0.0248 C.ar      1 <0>         0.1705
     18 C14        -0.1156   -0.1061    0.0362 C.ar      1 <0>        -0.1222
     19 C15        -0.1861    1.2758    0.0763 C.ar      1 <0>        -0.1071
     20 C16         0.9695    2.0351    0.1042 C.ar      1 <0>        -0.1209
     21 C17         2.2100    1.4200    0.1098 C.ar      1 <0>        -0.1130
     22 C18         2.2816    0.0378    0.0872 C.ar      1 <0>         0.1185
     23 N2          3.4902   -0.6452    0.1534 N.pl3     1 <0>        -0.6846
     24 C19         1.0636   -2.1935   -2.5057 C.ar      1 <0>        -0.0484
     25 C20         1.6292   -1.2671   -3.3619 C.ar      1 <0>        -0.0999
     26 C21         0.9225   -0.8220   -4.4633 C.ar      1 <0>        -0.1052
     27 C22        -0.3539   -1.2959   -4.7039 C.ar      1 <0>        -0.1159
     28 C23        -0.9221   -2.2180   -3.8457 C.ar      1 <0>        -0.0932
     29 C24        -0.2133   -2.6674   -2.7458 C.ar      1 <0>        -0.0723
     30 Br1        -0.9905   -3.9288   -1.5707 Br        1 <0>        -0.0512
     31 C25         3.9171   -3.1109   -2.5308 C.2       1 <0>         0.3964
     32 O2          3.2657   -3.9564   -3.1123 O.2       1 <0>        -0.4661
     33 C26         5.3512   -2.9103   -2.9187 C.3       1 <0>        -0.1519
     34 H3         12.0253   -1.2919   -1.9185 H         1 <0>         0.0561
     35 H4         11.9467   -2.5394   -3.1857 H         1 <0>         0.0565
     36 H5         13.1553   -1.2370   -3.2926 H         1 <0>         0.1016
     37 H6          9.2375    0.6045   -4.8616 H         1 <0>         0.1320
     38 H7          6.8483    0.2622   -4.3786 H         1 <0>         0.1302
     39 H8          7.8504   -2.7161   -1.4946 H         1 <0>         0.1249
     40 H9         10.2411   -2.3877   -1.9799 H         1 <0>         0.1290
     41 H10         5.7351   -0.1738   -0.8912 H         1 <0>         0.0921
     42 H11         6.0693   -1.8836   -0.5340 H         1 <0>         0.0930
     43 H12         0.9366   -2.6885    0.5925 H         1 <0>         0.3998
     44 H13        -1.0191   -0.6974    0.0144 H         1 <0>         0.1250
     45 H14        -1.1494    1.7641    0.0813 H         1 <0>         0.1235
     46 H15         0.9040    3.1130    0.1214 H         1 <0>         0.1252
     47 H16         3.1125    2.0126    0.1319 H         1 <0>         0.1256
     48 H17         4.0112   -0.5569    0.9668 H         1 <0>         0.4055
     49 H18         2.6246   -0.8936   -3.1720 H         1 <0>         0.1208
     50 H19         1.3661   -0.1011   -5.1340 H         1 <0>         0.1251
     51 H20        -0.9071   -0.9450   -5.5625 H         1 <0>         0.1291
     52 H21        -1.9194   -2.5876   -4.0333 H         1 <0>         0.1302
     53 H22         5.9366   -3.5286   -2.3943 H         1 <0>         0.0922
     54 H23         5.4740   -3.1112   -3.9830 H         1 <0>         0.0979
@<TRIPOS>BOND
     1    1    2 1
     2    1   34 1
     3    1   35 1
     4    1   36 1
     5    2    3 1
     6    3    8 ar
     7    3    4 ar
     8    4    5 ar
     9    4   37 1
    10    5    6 ar
    11    5   38 1
    12    6    7 ar
    13    6    9 1
    14    7    8 ar
    15    7   39 1
    16    8   40 1
    17    9   10 1
    18    9   33 1
    19    9   11 1
    20   11   12 1
    21   11   41 1
    22   11   42 1
    23   12   23 1
    24   12   13 2
    25   13   14 1
    26   13   31 1
    27   14   15 1
    28   14   16 1
    29   14   24 1
    30   16   17 1
    31   16   43 1
    32   17   22 ar
    33   17   18 ar
    34   18   19 ar
    35   18   44 1
    36   19   20 ar
    37   19   45 1
    38   20   21 ar
    39   20   46 1
    40   21   22 ar
    41   21   47 1
    42   22   23 1
    43   23   48 1
    44   24   29 ar
    45   24   25 ar
    46   25   26 ar
    47   25   49 1
    48   26   27 ar
    49   26   50 1
    50   27   28 ar
    51   27   51 1
    52   28   29 ar
    53   28   52 1
    54   29   30 1
    55   31   32 2
    56   31   33 1
    57   33   53 1
    58   33   54 1
@<TRIPOS>MOLECULE
ZINC13568543
   57    61     0     0     0
SMALL
USER_CHARGES
(6R,9S)-6-(2-isopropoxyphenyl)-9-(2-thienyl)-5,6,8,9,10,11-hexahydrobenzo[c][1,5]benzodiazepin-7-one
@<TRIPOS>ATOM
      1 C1          0.4945    3.1344    4.3401 C.3       1 <0>        -0.1785
      2 C2         -0.8207    3.1828    3.5598 C.3       1 <0>         0.0771
      3 C3         -1.8915    3.8725    4.4075 C.3       1 <0>        -0.1484
      4 O1         -0.6286    3.9145    2.3475 O.3       1 <0>        -0.3029
      5 C4         -0.1454    3.2250    1.2807 C.ar      1 <0>         0.1516
      6 C5          0.2469    1.9022    1.4281 C.ar      1 <0>        -0.2132
      7 C6          0.7417    1.2050    0.3433 C.ar      1 <0>        -0.0810
      8 C7          0.8370    1.8210   -0.8911 C.ar      1 <0>        -0.1595
      9 C8          0.4427    3.1374   -1.0415 C.ar      1 <0>        -0.0681
     10 C9         -0.0485    3.8408    0.0416 C.ar      1 <0>        -0.1086
     11 C10        -0.4781    5.2758   -0.1231 C.3       1 <0>         0.2875
     12 H1         -1.3933    5.4292    0.4486 H         1 <0>         0.0986
     13 C11        -0.7782    5.5215   -1.5829 C.2       1 <0>        -0.2941
     14 C12        -0.0511    6.2719   -2.4246 C.2       1 <0>         0.2589
     15 C13        -0.4743    6.4377   -3.8749 C.3       1 <0>        -0.1072
     16 C14        -1.1793    5.1796   -4.3601 C.3       1 <0>         0.0100
     17 H2         -0.5096    4.3232   -4.2815 H         1 <0>         0.1018
     18 C15        -2.4071    4.9630   -3.4671 C.3       1 <0>        -0.1529
     19 C16        -1.9474    4.8707   -2.0428 C.2       1 <0>         0.3980
     20 O2         -2.6018    4.2145   -1.2562 O.2       1 <0>        -0.4615
     21 C17        -1.6143    5.3595   -5.7917 C.2       1 <0>        -0.1414
     22 C18        -1.2953    4.6177   -6.8804 C.2       1 <0>        -0.1497
     23 C19        -1.8180    4.9724   -8.1099 C.2       1 <0>        -0.1569
     24 C20        -2.6342    6.0516   -8.1905 C.2       1 <0>        -0.1702
     25 S1         -2.6899    6.6001   -6.4925 S.3       1 <0>         0.0393
     26 N1          1.0773    6.9472   -2.0846 N.pl3     1 <0>        -0.6859
     27 C21         2.1324    6.4169   -1.3490 C.ar      1 <0>         0.1178
     28 C22         3.4072    6.2854   -1.8698 C.ar      1 <0>        -0.1138
     29 C23         4.4289    5.8283   -1.0544 C.ar      1 <0>        -0.1223
     30 C24         4.1743    5.5056    0.2661 C.ar      1 <0>        -0.1082
     31 C25         2.8944    5.6141    0.7807 C.ar      1 <0>        -0.1242
     32 C26         1.8649    6.0535   -0.0379 C.ar      1 <0>         0.1755
     33 N2          0.5539    6.1296    0.4249 N.pl3     1 <0>        -0.7613
     34 H3          0.3480    2.5763    5.2649 H         1 <0>         0.0703
     35 H4          1.2573    2.6430    3.7362 H         1 <0>         0.0616
     36 H5          0.8151    4.1493    4.5751 H         1 <0>         0.0664
     37 H6         -1.1414    2.1679    3.3248 H         1 <0>         0.0713
     38 H7         -2.8285    3.9071    3.8517 H         1 <0>         0.0653
     39 H8         -2.0380    3.3145    5.3323 H         1 <0>         0.0756
     40 H9         -1.5709    4.8875    4.6426 H         1 <0>         0.0661
     41 H10         0.1686    1.4193    2.3909 H         1 <0>         0.1266
     42 H11         1.0504    0.1764    0.4583 H         1 <0>         0.1209
     43 H12         1.2203    1.2728   -1.7390 H         1 <0>         0.1187
     44 H13         0.5184    3.6164   -2.0065 H         1 <0>         0.1163
     45 H14        -1.1483    7.2901   -3.9597 H         1 <0>         0.0948
     46 H15         0.4075    6.6136   -4.4910 H         1 <0>         0.0941
     47 H16        -2.8685    4.1170   -3.7343 H         1 <0>         0.0901
     48 H17        -3.0958    5.8008   -3.5762 H         1 <0>         0.1027
     49 H18        -0.6421    3.7625   -6.7886 H         1 <0>         0.1334
     50 H19        -1.5799    4.3981   -8.9930 H         1 <0>         0.1347
     51 H20        -3.1263    6.4689   -9.0566 H         1 <0>         0.1862
     52 H21         1.1534    7.8689   -2.3772 H         1 <0>         0.4054
     53 H22         3.6035    6.5364   -2.9018 H         1 <0>         0.1252
     54 H23         5.4280    5.7237   -1.4509 H         1 <0>         0.1247
     55 H24         4.9801    5.1663    0.9001 H         1 <0>         0.1220
     56 H25         2.6988    5.3590    1.8117 H         1 <0>         0.1225
     57 H26         0.3294    6.7632    1.1242 H         1 <0>         0.3985
@<TRIPOS>BOND
     1    1    2 1
     2    1   34 1
     3    1   35 1
     4    1   36 1
     5    2    3 1
     6    2    4 1
     7    2   37 1
     8    3   38 1
     9    3   39 1
    10    3   40 1
    11    4    5 1
    12    5   10 ar
    13    5    6 ar
    14    6    7 ar
    15    6   41 1
    16    7    8 ar
    17    7   42 1
    18    8    9 ar
    19    8   43 1
    20    9   10 ar
    21    9   44 1
    22   10   11 1
    23   11   12 1
    24   11   33 1
    25   11   13 1
    26   13   19 1
    27   13   14 2
    28   14   15 1
    29   14   26 1
    30   15   16 1
    31   15   45 1
    32   15   46 1
    33   16   17 1
    34   16   18 1
    35   16   21 1
    36   18   19 1
    37   18   47 1
    38   18   48 1
    39   19   20 2
    40   21   25 1
    41   21   22 2
    42   22   23 1
    43   22   49 1
    44   23   24 2
    45   23   50 1
    46   24   25 1
    47   24   51 1
    48   26   27 1
    49   26   52 1
    50   27   32 ar
    51   27   28 ar
    52   28   29 ar
    53   28   53 1
    54   29   30 ar
    55   29   54 1
    56   30   31 ar
    57   30   55 1
    58   31   32 ar
    59   31   56 1
    60   32   33 1
    61   33   57 1
@<TRIPOS>MOLECULE
ZINC19805249
   54    57     0     0     0
SMALL
USER_CHARGES
(4S,8E)-2-amino-4-(4-fluorophenyl)-8-[(4-fluorophenyl)methylene]-6-isopropyl-5,7-dihydro-4H-pyrano[5,6-c]pyridine-3-carbonitrile
@<TRIPOS>ATOM
      1 C1         -0.9887   -2.3257   -0.7702 C.3       1 <0>        -0.1483
      2 C2         -1.1615   -0.8121   -0.6283 C.3       1 <0>         0.0768
      3 C3         -2.0398   -0.5109    0.5877 C.3       1 <0>        -0.1925
      4 N1          0.1542   -0.1837   -0.4497 N.3       1 <0>        -0.5247
      5 C4          0.8115   -0.6731    0.7759 C.3       1 <0>         0.0777
      6 C5          2.2193   -0.1149    0.7747 C.2       1 <0>        -0.0586
      7 C6          3.2676   -0.8656    1.1571 C.2       1 <0>        -0.0821
      8 C7          3.0441   -2.1975    1.7451 C.ar      1 <0>        -0.0685
      9 C8          1.9080   -2.4399    2.5226 C.ar      1 <0>        -0.0866
     10 C9          1.7019   -3.6901    3.0657 C.ar      1 <0>        -0.1533
     11 C10         2.6240   -4.7027    2.8512 C.ar      1 <0>         0.1036
     12 C11         3.7553   -4.4673    2.0855 C.ar      1 <0>        -0.1520
     13 C12         3.9702   -3.2229    1.5325 C.ar      1 <0>        -0.0717
     14 F1          2.4190   -5.9244    3.3905 F         1 <0>        -0.1375
     15 C13         2.3984    1.2851    0.3372 C.2       1 <0>         0.1079
     16 C14         1.3810    1.9348   -0.2302 C.2       1 <0>        -0.1450
     17 C15         0.0400    1.2756   -0.4285 C.3       1 <0>         0.0981
     18 C16         1.5506    3.3623   -0.6923 C.3       1 <0>         0.0871
     19 H1          0.6571    3.9409   -0.4150 H         1 <0>         0.0948
     20 C17         2.7491    3.9863   -0.0358 C.2       1 <0>        -0.2995
     21 C18         3.7060    3.2134    0.5361 C.2       1 <0>         0.4524
     22 O1          3.6047    1.8730    0.5285 O.3       1 <0>        -0.2496
     23 N2          4.7917    3.8076    1.1298 N.pl3     1 <0>        -0.8540
     24 C19         2.8826    5.4119   -0.0132 C.1       1 <0>         0.2760
     25 N3          2.9885    6.5428    0.0048 N.1       1 <0>        -0.4532
     26 C20         1.7360    3.3795   -2.1877 C.ar      1 <0>        -0.0822
     27 C21         2.8145    2.7290   -2.7575 C.ar      1 <0>        -0.0671
     28 C22         2.9824    2.7393   -4.1292 C.ar      1 <0>        -0.1511
     29 C23         2.0764    3.4114   -4.9320 C.ar      1 <0>         0.0966
     30 C24         0.9996    4.0674   -4.3597 C.ar      1 <0>        -0.1518
     31 C25         0.8304    4.0505   -2.9883 C.ar      1 <0>        -0.0846
     32 F2          2.2430    3.4276   -6.2726 F         1 <0>        -0.1407
     33 H2         -0.3572   -2.5423   -1.6445 H         1 <0>         0.0666
     34 H3         -1.9739   -2.7963   -0.9039 H         1 <0>         0.0639
     35 H4         -0.5107   -2.7267    0.1357 H         1 <0>         0.0565
     36 H5         -1.6058   -0.3869   -1.5404 H         1 <0>         0.0900
     37 H6         -2.1640    0.5773    0.6897 H         1 <0>         0.0595
     38 H7         -1.5618   -0.9119    1.4936 H         1 <0>         0.0592
     39 H8         -3.0250   -0.9815    0.4540 H         1 <0>         0.0674
     40 H9          0.2540   -0.3212    1.6565 H         1 <0>         0.0580
     41 H10         0.8289   -1.7729    0.7685 H         1 <0>         0.1108
     42 H11         4.2919   -0.4850    1.0308 H         1 <0>         0.1378
     43 H12         1.1912   -1.6505    2.6941 H         1 <0>         0.1372
     44 H13         0.8227   -3.8797    3.6635 H         1 <0>         0.1379
     45 H14         4.4700   -5.2603    1.9220 H         1 <0>         0.1386
     46 H15         4.8519   -3.0407    0.9361 H         1 <0>         0.1372
     47 H16        -0.3803    1.6244   -1.3833 H         1 <0>         0.0968
     48 H17        -0.6215    1.5797    0.3961 H         1 <0>         0.0580
     49 H18         5.5717    3.1875    1.5956 H         1 <0>         0.4334
     50 H19         4.8817    4.9039    1.1397 H         1 <0>         0.4499
     51 H20         3.5239    2.2091   -2.1308 H         1 <0>         0.1249
     52 H21         3.8224    2.2270   -4.5746 H         1 <0>         0.1338
     53 H22         0.2921    4.5917   -4.9849 H         1 <0>         0.1349
     54 H23        -0.0094    4.5621   -2.5417 H         1 <0>         0.1314
@<TRIPOS>BOND
     1    1    2 1
     2    1   33 1
     3    1   34 1
     4    1   35 1
     5    2    3 1
     6    2    4 1
     7    2   36 1
     8    3   37 1
     9    3   38 1
    10    3   39 1
    11    4   17 1
    12    4    5 1
    13    5    6 1
    14    5   40 1
    15    5   41 1
    16    6    7 2
    17    6   15 1
    18    7    8 1
    19    7   42 1
    20    8   13 ar
    21    8    9 ar
    22    9   10 ar
    23    9   43 1
    24   10   11 ar
    25   10   44 1
    26   11   12 ar
    27   11   14 1
    28   12   13 ar
    29   12   45 1
    30   13   46 1
    31   15   22 1
    32   15   16 2
    33   16   17 1
    34   16   18 1
    35   17   47 1
    36   17   48 1
    37   18   19 1
    38   18   20 1
    39   18   26 1
    40   20   21 2
    41   20   24 1
    42   21   22 1
    43   21   23 1
    44   23   49 1
    45   23   50 1
    46   24   25 3
    47   26   31 ar
    48   26   27 ar
    49   27   28 ar
    50   27   51 1
    51   28   29 ar
    52   28   52 1
    53   29   30 ar
    54   29   32 1
    55   30   31 ar
    56   30   53 1
    57   31   54 1
@<TRIPOS>MOLECULE
ZINC21227381
   50    54     0     0     0
SMALL
USER_CHARGES
(6S,9S)-6-(4-bromophenyl)-9-(4-chlorophenyl)-5,6,8,9,10,11-hexahydrobenzo[b][1,4]benzodiazepin-7-one
@<TRIPOS>ATOM
      1 C1          1.4595    1.9529    0.1090 C.ar      1 <0>        -0.1076
      2 C2          0.3168    1.1765    0.1727 C.ar      1 <0>        -0.1226
      3 C3         -0.9325    1.7733    0.1868 C.ar      1 <0>        -0.1161
      4 C4         -1.0249    3.1537    0.1552 C.ar      1 <0>         0.1201
      5 C5          0.1182    3.9331    0.0614 C.ar      1 <0>         0.1713
      6 C6          1.3669    3.3323    0.0455 C.ar      1 <0>        -0.1260
      7 N1         -0.0250    5.3135   -0.0626 N.pl3     1 <0>        -0.7821
      8 C7         -0.6444    5.8988   -1.2328 C.3       1 <0>         0.2846
      9 H1         -0.5775    6.9826   -1.0571 H         1 <0>         0.0944
     10 C8         -2.1025    5.5452   -1.4090 C.2       1 <0>        -0.3054
     11 C9         -2.7715    4.5991   -0.7307 C.2       1 <0>         0.2650
     12 N2         -2.2421    3.8188    0.2458 N.pl3     1 <0>        -0.6960
     13 C10        -4.2366    4.3275   -1.0319 C.3       1 <0>        -0.1022
     14 C11        -4.9302    5.6214   -1.4539 C.3       1 <0>        -0.0385
     15 H2         -4.9000    6.3632   -0.6422 H         1 <0>         0.0939
     16 C12        -4.2182    6.1454   -2.7067 C.3       1 <0>        -0.1605
     17 C13        -2.7632    6.3213   -2.3906 C.2       1 <0>         0.4003
     18 O1         -2.1285    7.1601   -2.9994 O.2       1 <0>        -0.4710
     19 C14        -6.3783    5.3460   -1.7670 C.ar      1 <0>        -0.0773
     20 C15        -6.7111    4.4302   -2.7476 C.ar      1 <0>        -0.1019
     21 C16        -8.0392    4.1730   -3.0313 C.ar      1 <0>        -0.1068
     22 C17        -9.0355    4.8406   -2.3414 C.ar      1 <0>        -0.0354
     23 C18        -8.7017    5.7612   -1.3641 C.ar      1 <0>        -0.1071
     24 C19        -7.3733    6.0134   -1.0773 C.ar      1 <0>        -0.0993
     25 Cl1       -10.7037    4.5230   -2.7017 Cl        1 <0>        -0.0679
     26 C20         0.1078    5.4362   -2.4540 C.ar      1 <0>        -0.0649
     27 C21         0.6971    6.3620   -3.2945 C.ar      1 <0>        -0.0836
     28 C22         1.3911    5.9379   -4.4120 C.ar      1 <0>        -0.0951
     29 C23         1.4871    4.5873   -4.6950 C.ar      1 <0>        -0.0893
     30 C24         0.8928    3.6615   -3.8565 C.ar      1 <0>        -0.0952
     31 C25         0.2035    4.0863   -2.7364 C.ar      1 <0>        -0.1005
     32 Br1         2.4299    4.0068   -6.2280 Br        1 <0>        -0.0563
     33 H3          2.4304    1.4798    0.1093 H         1 <0>         0.1238
     34 H4          0.3991    0.1001    0.2071 H         1 <0>         0.1257
     35 H5         -1.8258    1.1676    0.2265 H         1 <0>         0.1257
     36 H6          2.2606    3.9356   -0.0156 H         1 <0>         0.1244
     37 H7          0.3418    5.9610    0.7475 H         1 <0>         0.4183
     38 H8         -2.8499    3.7316    1.1585 H         1 <0>         0.4265
     39 H9         -4.3133    3.5927   -1.8469 H         1 <0>         0.0975
     40 H10        -4.7283    3.9295   -0.1320 H         1 <0>         0.0888
     41 H11        -4.3388    5.4220   -3.5266 H         1 <0>         0.1013
     42 H12        -4.6570    7.1101   -3.0014 H         1 <0>         0.0994
     43 H13        -5.9333    3.9123   -3.2891 H         1 <0>         0.1312
     44 H14        -8.2991    3.4543   -3.7943 H         1 <0>         0.1344
     45 H15        -9.4790    6.2829   -0.8255 H         1 <0>         0.1348
     46 H16        -7.1127    6.7317   -0.3142 H         1 <0>         0.1334
     47 H17         0.6186    7.4167   -3.0757 H         1 <0>         0.1309
     48 H18         1.8547    6.6611   -5.0666 H         1 <0>         0.1305
     49 H19         0.9672    2.6069   -4.0772 H         1 <0>         0.1271
     50 H20        -0.2603    3.3635   -2.0814 H         1 <0>         0.1255
@<TRIPOS>BOND
     1    1    6 ar
     2    1    2 ar
     3    1   33 1
     4    2    3 ar
     5    2   34 1
     6    3    4 ar
     7    3   35 1
     8    4   12 1
     9    4    5 ar
    10    5    6 ar
    11    5    7 1
    12    6   36 1
    13    7    8 1
    14    7   37 1
    15    8    9 1
    16    8   10 1
    17    8   26 1
    18   10   17 1
    19   10   11 2
    20   11   12 1
    21   11   13 1
    22   12   38 1
    23   13   14 1
    24   13   39 1
    25   13   40 1
    26   14   15 1
    27   14   16 1
    28   14   19 1
    29   16   17 1
    30   16   41 1
    31   16   42 1
    32   17   18 2
    33   19   24 ar
    34   19   20 ar
    35   20   21 ar
    36   20   43 1
    37   21   22 ar
    38   21   44 1
    39   22   23 ar
    40   22   25 1
    41   23   24 ar
    42   23   45 1
    43   24   46 1
    44   26   31 ar
    45   26   27 ar
    46   27   28 ar
    47   27   47 1
    48   28   29 ar
    49   28   48 1
    50   29   30 ar
    51   29   32 1
    52   30   31 ar
    53   30   49 1
    54   31   50 1
@<TRIPOS>MOLECULE
ZINC37316453
   38    39     0     0     0
SMALL
USER_CHARGES

@<TRIPOS>ATOM
      1 C1         -0.0184    1.5028    0.0103 C.3       1 <0>        -0.1003
      2 C2          0.0021   -0.0041    0.0020 C.ar      1 <0>        -0.1648
      3 C3          0.0058   -0.6876   -1.1993 C.ar      1 <0>        -0.0623
      4 C4          0.0249   -2.0686   -1.2111 C.ar      1 <0>        -0.1996
      5 C5          0.0406   -2.7743   -0.0140 C.ar      1 <0>         0.2285
      6 C6          0.0369   -2.0894    1.1931 C.ar      1 <0>        -0.1820
      7 C7          0.0230   -0.7033    1.2005 C.ar      1 <0>         0.1485
      8 O1          0.0245   -0.0297    2.3807 O.3       1 <0>        -0.4932
      9 C8          0.0538   -2.8511    2.4933 C.3       1 <0>        -0.0987
     10 N1          0.0595   -4.1708   -0.0257 N.pl3     1 <0>        -0.7371
     11 C9          0.0629   -4.8927   -1.3005 C.3       1 <0>         0.1763
     12 C10         0.0844   -6.3764   -1.0375 C.ar      1 <0>        -0.1180
     13 C11         1.2729   -7.0763   -1.1219 C.ar      1 <0>        -0.0429
     14 C12         1.2936   -8.4381   -0.8808 C.ar      1 <0>        -0.0971
     15 C13         0.1248   -9.1029   -0.5546 C.ar      1 <0>        -0.0413
     16 C14        -1.0661   -8.4070   -0.4695 C.ar      1 <0>        -0.1140
     17 C15        -1.0875   -7.0391   -0.7052 C.ar      1 <0>         0.1581
     18 O2         -2.2566   -6.3512   -0.6158 O.3       1 <0>        -0.3210
     19 C16        -3.0391   -6.2444   -1.8068 C.3       1 <0>         0.0338
     20 Br1        -2.6636   -9.3160   -0.0250 Br        1 <0>        -0.0167
     21 Br2         2.9217   -9.3929   -0.9977 Br        1 <0>        -0.0249
     22 H1          1.0042    1.8801    0.0026 H         1 <0>         0.0650
     23 H2         -0.5455    1.8639   -0.8728 H         1 <0>         0.0609
     24 H3         -0.5286    1.8543    0.9071 H         1 <0>         0.0623
     25 H4         -0.0067   -0.1408   -2.1306 H         1 <0>         0.1244
     26 H5          0.0274   -2.6003   -2.1512 H         1 <0>         0.1213
     27 H6         -0.8583    0.1530    2.7305 H         1 <0>         0.3874
     28 H7          1.0854   -3.0205    2.8019 H         1 <0>         0.0660
     29 H8         -0.4644   -2.2741    3.2593 H         1 <0>         0.0674
     30 H9         -0.4474   -3.8098    2.3594 H         1 <0>         0.0570
     31 H10         0.0704   -4.6627    0.8102 H         1 <0>         0.4021
     32 H11        -0.8335   -4.6367   -1.8654 H         1 <0>         0.0732
     33 H12         0.9462   -4.6125   -1.8743 H         1 <0>         0.0748
     34 H13         2.1864   -6.5595   -1.3767 H         1 <0>         0.1481
     35 H14         0.1432  -10.1663   -0.3667 H         1 <0>         0.1503
     36 H15        -2.4593   -5.7376   -2.5782 H         1 <0>         0.0510
     37 H16        -3.3116   -7.2413   -2.1531 H         1 <0>         0.0536
     38 H17        -3.9433   -5.6727   -1.5973 H         1 <0>         0.1037
@<TRIPOS>BOND
     1    1    2 1
     2    1   22 1
     3    1   23 1
     4    1   24 1
     5    2    7 ar
     6    2    3 ar
     7    3    4 ar
     8    3   25 1
     9    4    5 ar
    10    4   26 1
    11    5    6 ar
    12    5   10 1
    13    6    7 ar
    14    6    9 1
    15    7    8 1
    16    8   27 1
    17    9   28 1
    18    9   29 1
    19    9   30 1
    20   10   11 1
    21   10   31 1
    22   11   12 1
    23   11   32 1
    24   11   33 1
    25   12   17 ar
    26   12   13 ar
    27   13   14 ar
    28   13   34 1
    29   14   15 ar
    30   14   21 1
    31   15   16 ar
    32   15   35 1
    33   16   17 ar
    34   16   20 1
    35   17   18 1
    36   18   19 1
    37   19   36 1
    38   19   37 1
    39   19   38 1
@<TRIPOS>MOLECULE
ZINC09586254
   53    56     0     0     0
SMALL
USER_CHARGES
7-[2-(3,4,4a,5,6,7,8,8a-octahydro-2H-quinolin-1-yl)acetyl]amino-6-thiabicyclo[3.3.0]octa-7,9-diene-8-carboxamide
@<TRIPOS>ATOM
      1 C1          2.8547    4.0912   -0.0634 C.3       1 <0>        -0.1317
      2 C2          3.5836    3.5421   -1.2913 C.3       1 <0>        -0.1161
      3 C3          3.5871    2.0127   -1.2403 C.3       1 <0>        -0.1466
      4 C4          2.1455    1.5011   -1.2329 C.3       1 <0>         0.0353
      5 H1          1.6353    1.8409   -2.1341 H         1 <0>         0.1412
      6 C5          1.4209    2.0475   -0.0005 C.3       1 <0>        -0.1000
      7 H2          1.9350    1.7145    0.9012 H         1 <0>         0.0952
      8 C6          1.4137    3.5763   -0.0513 C.3       1 <0>        -0.1127
      9 C7         -0.0187    1.5272    0.0104 C.3       1 <0>        -0.1347
     10 C8          0.0021   -0.0041    0.0020 C.3       1 <0>        -0.1421
     11 C9          0.7710   -0.4933   -1.2273 C.3       1 <0>        -0.0111
     12 C10         2.9479   -0.5252   -2.2861 C.3       1 <0>        -0.0269
     13 C11         3.1276   -2.0060   -2.0718 C.2       1 <0>         0.4966
     14 O1          2.6326   -2.5430   -1.1035 O.2       1 <0>        -0.4941
     15 N1          3.8384   -2.7335   -2.9560 N.am      1 <0>        -0.5923
     16 C12         4.0038   -4.0960   -2.7588 C.2       1 <0>         0.0258
     17 C13         4.6875   -5.0031   -3.5500 C.2       1 <0>        -0.1756
     18 C14         4.7158   -6.3980   -3.1113 C.2       1 <0>        -0.0995
     19 C15         4.0496   -6.6515   -1.9705 C.2       1 <0>        -0.2077
     20 S1          3.3992   -5.0771   -1.4675 S.3       1 <0>         0.2698
     21 C16         4.1149   -8.1059   -1.5904 C.3       1 <0>        -0.0381
     22 C17         4.5595   -8.8264   -2.8824 C.3       1 <0>        -0.1161
     23 C18         5.3208   -7.7071   -3.6202 C.3       1 <0>        -0.0636
     24 C19         5.3622   -4.5801   -4.7812 C.2       1 <0>         0.5752
     25 O2          6.5236   -4.2180   -4.7450 O.2       1 <0>        -0.5256
     26 N2          4.6962   -4.5922   -5.9528 N.am      1 <0>        -0.8454
     27 H3          2.8508    5.1805   -0.1003 H         1 <0>         0.0808
     28 H4          3.3661    3.7604    0.8406 H         1 <0>         0.0710
     29 H5          3.0741    3.8756   -2.1953 H         1 <0>         0.0755
     30 H6          4.6105    3.9074   -1.2974 H         1 <0>         0.0859
     31 H7          4.0961    1.6788   -0.3361 H         1 <0>         0.0889
     32 H8          4.1069    1.6226   -2.1154 H         1 <0>         0.0863
     33 H9          0.9017    3.9076   -0.9547 H         1 <0>         0.0753
     34 H10         0.8952    3.9667    0.8244 H         1 <0>         0.0863
     35 H11        -0.5439    1.8895   -0.8733 H         1 <0>         0.0823
     36 H12        -0.5269    1.8799    0.9079 H         1 <0>         0.0963
     37 H13         0.4924   -0.3662    0.9057 H         1 <0>         0.0895
     38 H14        -1.0199   -0.3815   -0.0336 H         1 <0>         0.1140
     39 H15         0.8009   -1.5829   -1.2268 H         1 <0>         0.1409
     40 H16         0.2709   -0.1444   -2.1308 H         1 <0>         0.1282
     41 H17         2.4407   -0.3544   -3.2357 H         1 <0>         0.1676
     42 H18         3.9236   -0.0394   -2.3029 H         1 <0>         0.1676
     43 H19         4.2343   -2.3040   -3.7304 H         1 <0>         0.4269
     44 H20         4.8476   -8.2593   -0.7981 H         1 <0>         0.0917
     45 H21         3.1335   -8.4610   -1.2757 H         1 <0>         0.0851
     46 H22         3.6972   -9.1583   -3.4605 H         1 <0>         0.0804
     47 H23         5.2201   -9.6630   -2.6548 H         1 <0>         0.0902
     48 H24         5.1740   -7.7972   -4.6965 H         1 <0>         0.0761
     49 H25         6.3831   -7.7500   -3.3800 H         1 <0>         0.0868
     50 H26         3.7706   -4.8807   -5.9817 H         1 <0>         0.4045
     51 H27         5.1426   -4.3123   -6.7673 H         1 <0>         0.4079
     52 N3          2.1543    0.0246   -1.1677 N.4       1 <0>        -0.3781
     53 H28         2.5814   -0.2673   -0.2808 H         1 <0>         0.4329
@<TRIPOS>BOND
     1    1    8 1
     2    1    2 1
     3    1   27 1
     4    1   28 1
     5    2    3 1
     6    2   29 1
     7    2   30 1
     8    3    4 1
     9    3   31 1
    10    3   32 1
    11    4    5 1
    12    4    6 1
    13    4   52 1
    14    6    7 1
    15    6    8 1
    16    6    9 1
    17    8   33 1
    18    8   34 1
    19    9   10 1
    20    9   35 1
    21    9   36 1
    22   10   11 1
    23   10   37 1
    24   10   38 1
    25   11   39 1
    26   11   40 1
    27   11   52 1
    28   12   13 1
    29   12   41 1
    30   12   42 1
    31   12   52 1
    32   13   14 2
    33   13   15 am
    34   15   16 1
    35   15   43 1
    36   16   20 1
    37   16   17 2
    38   17   18 1
    39   17   24 1
    40   18   23 1
    41   18   19 2
    42   19   20 1
    43   19   21 1
    44   21   22 1
    45   21   44 1
    46   21   45 1
    47   22   23 1
    48   22   46 1
    49   22   47 1
    50   23   48 1
    51   23   49 1
    52   24   25 2
    53   24   26 am
    54   26   50 1
    55   26   51 1
    56   52   53 1
@<TRIPOS>MOLECULE
ZINC35793189
   34    35     0     0     0
SMALL
USER_CHARGES

@<TRIPOS>ATOM
      1 C1         -0.0761    1.5427   -0.0291 C.3       1 <0>        -0.1849
      2 C2         -0.0290    0.0206    0.1183 C.3       1 <0>         0.1249
      3 H1          0.5271   -0.4082   -0.7154 H         1 <0>         0.1705
      4 C3          0.6524   -0.3378    1.4138 C.2       1 <0>        -0.0583
      5 C4          1.9316   -0.7200    1.5276 C.2       1 <0>        -0.1141
      6 C5          2.1601   -0.9642    2.9568 C.ar      1 <0>        -0.1410
      7 C6          3.2581   -1.3744    3.7119 C.ar      1 <0>        -0.0269
      8 C7          3.1328   -1.5090    5.0775 C.ar      1 <0>        -0.1041
      9 C8          1.9210   -1.2385    5.6989 C.ar      1 <0>        -0.0453
     10 C9          0.8288   -0.8324    4.9633 C.ar      1 <0>        -0.1015
     11 C10         0.9341   -0.6901    3.5854 C.ar      1 <0>         0.0839
     12 O1          0.0665   -0.3147    2.6236 O.3       1 <0>        -0.1953
     13 Br1         4.6169   -2.0648    6.1092 Br        1 <0>        -0.0170
     14 N1         -1.3974   -0.5137    0.1206 N.4       1 <0>        -0.4953
     15 C11        -1.3497   -1.9820    0.1250 C.3       1 <0>         0.0013
     16 H2         -0.7349   -2.3230    0.9579 H         1 <0>         0.1633
     17 C12        -0.7458   -2.4766   -1.1908 C.3       1 <0>        -0.1817
     18 C13        -2.7459   -2.5294    0.2741 C.2       1 <0>         0.5141
     19 O2         -3.6878   -1.7711    0.3674 O.2       1 <0>        -0.5260
     20 N2         -2.9477   -3.8616    0.3036 N.am      1 <0>        -0.8224
     21 H3          0.9323    1.9475    0.0573 H         1 <0>         0.1160
     22 H4         -0.4888    1.8007   -1.0045 H         1 <0>         0.0988
     23 H5         -0.7053    1.9644    0.7547 H         1 <0>         0.0895
     24 H6          2.6500   -0.8271    0.7283 H         1 <0>         0.1749
     25 H7          4.2009   -1.5857    3.2293 H         1 <0>         0.1475
     26 H8          1.8334   -1.3479    6.7698 H         1 <0>         0.1557
     27 H9         -0.1088   -0.6252    5.4577 H         1 <0>         0.1490
     28 H10        -1.8833   -0.1905    0.9437 H         1 <0>         0.4404
     29 H11         0.2377   -2.0278   -1.3306 H         1 <0>         0.0970
     30 H12        -0.6490   -3.5619   -1.1609 H         1 <0>         0.1147
     31 H13        -1.3957   -2.1925   -2.0184 H         1 <0>         0.0949
     32 H14        -2.1944   -4.4681    0.2289 H         1 <0>         0.4130
     33 H15        -3.8463   -4.2140    0.3996 H         1 <0>         0.4254
     34 H16        -1.8841   -0.1955   -0.7039 H         1 <0>         0.4391
@<TRIPOS>BOND
     1    1    2 1
     2    1   21 1
     3    1   22 1
     4    1   23 1
     5    2    3 1
     6    2    4 1
     7    2   14 1
     8    4   12 1
     9    4    5 2
    10    5    6 1
    11    5   24 1
    12    6   11 ar
    13    6    7 ar
    14    7    8 ar
    15    7   25 1
    16    8    9 ar
    17    8   13 1
    18    9   10 ar
    19    9   26 1
    20   10   11 ar
    21   10   27 1
    22   11   12 1
    23   14   15 1
    24   14   28 1
    25   14   34 1
    26   15   16 1
    27   15   17 1
    28   15   18 1
    29   17   29 1
    30   17   30 1
    31   17   31 1
    32   18   19 2
    33   18   20 am
    34   20   32 1
    35   20   33 1
@<TRIPOS>MOLECULE
ZINC37621443
   34    34     0     0     0
SMALL
USER_CHARGES

@<TRIPOS>ATOM
      1 C1          1.0981   -0.8578    3.9559 C.3       1 <0>        -0.1589
      2 C2          0.6974   -1.4527    2.6045 C.3       1 <0>        -0.1378
      3 C3         -0.7779   -1.8564    2.6422 C.3       1 <0>        -0.1318
      4 C4         -1.1786   -2.4514    1.2908 C.3       1 <0>         0.0541
      5 C5         -0.9628   -1.4099    0.1909 C.3       1 <0>        -0.1799
      6 C6         -2.6317   -2.8490    1.3280 C.2       1 <0>         0.5076
      7 O1         -3.3909   -2.3011    2.0992 O.2       1 <0>        -0.4446
      8 N1         -3.0878   -3.8134    0.5044 N.am      1 <0>        -0.6808
      9 C7         -4.4120   -4.2575    0.6114 C.ar      1 <0>         0.1299
     10 C8         -5.4111   -3.6556   -0.1433 C.ar      1 <0>        -0.0007
     11 C9         -6.7169   -4.0962   -0.0358 C.ar      1 <0>        -0.0888
     12 C10        -7.0294   -5.1355    0.8227 C.ar      1 <0>         0.0035
     13 C11        -6.0364   -5.7370    1.5757 C.ar      1 <0>        -0.0891
     14 C12        -4.7279   -5.3044    1.4682 C.ar      1 <0>        -0.0023
     15 Cl1        -3.4818   -6.0640    2.4084 Cl        1 <0>        -0.0374
     16 Cl2        -8.6706   -5.6854    0.9558 Cl        1 <0>        -0.0156
     17 Cl3        -5.0202   -2.3509   -1.2197 Cl        1 <0>        -0.0238
     18 N2         -0.3540   -3.6350    1.0130 N.4       1 <0>        -0.6357
     19 H1          2.1491   -0.5702    3.9290 H         1 <0>         0.0698
     20 H2          0.4862    0.0205    4.1620 H         1 <0>         0.0675
     21 H3          0.9444   -1.5997    4.7395 H         1 <0>         0.0625
     22 H4          0.8511   -0.7108    1.8209 H         1 <0>         0.0851
     23 H5          1.3092   -2.3309    2.3984 H         1 <0>         0.0584
     24 H6         -0.9316   -2.5984    3.4258 H         1 <0>         0.0972
     25 H7         -1.3898   -0.9782    2.8484 H         1 <0>         0.1273
     26 H8          0.0882   -1.1223    0.1640 H         1 <0>         0.1061
     27 H9         -1.2483   -1.8338   -0.7718 H         1 <0>         0.0901
     28 H10        -1.5747   -0.5317    0.3971 H         1 <0>         0.1186
     29 H11        -2.4990   -4.2001   -0.1625 H         1 <0>         0.4067
     30 H12        -7.4940   -3.6287   -0.6223 H         1 <0>         0.1640
     31 H13        -6.2834   -6.5476    2.2451 H         1 <0>         0.1637
     32 H14        -0.4963   -4.3218    1.7383 H         1 <0>         0.4397
     33 H15        -0.6183   -4.0273    0.1218 H         1 <0>         0.4315
     34 H16         0.6189   -3.3687    0.9881 H         1 <0>         0.4441
@<TRIPOS>BOND
     1    1    2 1
     2    1   19 1
     3    1   20 1
     4    1   21 1
     5    2    3 1
     6    2   22 1
     7    2   23 1
     8    3    4 1
     9    3   24 1
    10    3   25 1
    11    4    5 1
    12    4    6 1
    13    4   18 1
    14    5   26 1
    15    5   27 1
    16    5   28 1
    17    6    7 2
    18    6    8 am
    19    8    9 1
    20    8   29 1
    21    9   14 ar
    22    9   10 ar
    23   10   11 ar
    24   10   17 1
    25   11   12 ar
    26   11   30 1
    27   12   13 ar
    28   12   16 1
    29   13   14 ar
    30   13   31 1
    31   14   15 1
    32   18   32 1
    33   18   33 1
    34   18   34 1
@<TRIPOS>MOLECULE
ZINC44335352
   37    37     0     0     0
SMALL
USER_CHARGES

@<TRIPOS>ATOM
      1 C1         -0.0187    1.5258    0.0104 C.3       1 <0>        -0.1527
      2 C2          0.0021   -0.0041    0.0020 C.3       1 <0>        -0.0596
      3 C3          0.7421   -0.5109    1.2415 C.3       1 <0>        -0.1501
      4 C4         -1.4117   -0.5257    0.0127 C.ar      1 <0>        -0.0627
      5 C5         -1.8600   -1.3257   -1.0222 C.ar      1 <0>        -0.1004
      6 C6         -3.1557   -1.8050   -1.0154 C.ar      1 <0>        -0.1530
      7 C7         -4.0076   -1.4836    0.0312 C.ar      1 <0>         0.1446
      8 C8         -3.5555   -0.6808    1.0692 C.ar      1 <0>        -0.1116
      9 C9         -2.2564   -0.2081    1.0600 C.ar      1 <0>        -0.0536
     10 Br1        -4.7133   -0.2394    2.4977 Br        1 <0>        -0.0081
     11 O1         -5.2828   -1.9536    0.0398 O.3       1 <0>        -0.4750
     12 C10        -3.6434   -2.6760   -2.1443 C.3       1 <0>        -0.0877
     13 C11        -3.6018   -4.1429   -1.7114 C.3       1 <0>         0.0436
     14 H1         -4.1713   -4.2661   -0.7902 H         1 <0>         0.1743
     15 C12        -4.2035   -5.0030   -2.7927 C.2       1 <0>         0.4545
     16 O2         -3.4853   -5.5981   -3.5608 O.2       1 <0>        -0.4824
     17 O3         -5.5371   -5.1081   -2.9024 O.3       1 <0>        -0.3244
     18 C13        -6.0383   -5.9405   -3.9503 C.3       1 <0>         0.0288
     19 N1         -2.2080   -4.5468   -1.4832 N.4       1 <0>        -0.6240
     20 H2          1.0039    1.9031    0.0027 H         1 <0>         0.0691
     21 H3         -0.5459    1.8868   -0.8726 H         1 <0>         0.0601
     22 H4         -0.5289    1.8773    0.9072 H         1 <0>         0.0607
     23 H5          0.5123   -0.3556   -0.8948 H         1 <0>         0.0854
     24 H6          0.2319   -0.1594    2.1383 H         1 <0>         0.0611
     25 H7          0.7568   -1.6008    1.2356 H         1 <0>         0.0551
     26 H8          1.7647   -0.1336    1.2338 H         1 <0>         0.0691
     27 H9         -1.1967   -1.5759   -1.8369 H         1 <0>         0.1390
     28 H10        -1.9025    0.4133    1.8693 H         1 <0>         0.1464
     29 H11        -5.3841   -2.8081    0.4810 H         1 <0>         0.3940
     30 H12        -4.6670   -2.4012   -2.3991 H         1 <0>         0.1413
     31 H13        -3.0022   -2.5357   -3.0146 H         1 <0>         0.1125
     32 H14        -5.6943   -5.5604   -4.9122 H         1 <0>         0.0754
     33 H15        -5.6748   -6.9586   -3.8108 H         1 <0>         0.0745
     34 H16        -7.1280   -5.9374   -3.9271 H         1 <0>         0.1226
     35 H17        -1.8052   -3.9708   -0.7592 H         1 <0>         0.4459
     36 H18        -2.1806   -5.5141   -1.1976 H         1 <0>         0.4437
     37 H19        -1.6809   -4.4327   -2.3359 H         1 <0>         0.4438
@<TRIPOS>BOND
     1    1    2 1
     2    1   20 1
     3    1   21 1
     4    1   22 1
     5    2    3 1
     6    2    4 1
     7    2   23 1
     8    3   24 1
     9    3   25 1
    10    3   26 1
    11    4    9 ar
    12    4    5 ar
    13    5    6 ar
    14    5   27 1
    15    6    7 ar
    16    6   12 1
    17    7    8 ar
    18    7   11 1
    19    8    9 ar
    20    8   10 1
    21    9   28 1
    22   11   29 1
    23   12   13 1
    24   12   30 1
    25   12   31 1
    26   13   14 1
    27   13   15 1
    28   13   19 1
    29   15   16 2
    30   15   17 1
    31   17   18 1
    32   18   32 1
    33   18   33 1
    34   18   34 1
    35   19   35 1
    36   19   36 1
    37   19   37 1
@<TRIPOS>MOLECULE
ZINC42953807
   46    47     0     0     0
SMALL
USER_CHARGES

@<TRIPOS>ATOM
      1 C1         -0.4019    1.3643    2.4277 C.3       1 <0>        -0.1725
      2 C2         -0.0884   -0.1326    2.4716 C.3       1 <0>        -0.1483
      3 C3          0.7923   -0.5044    1.2771 C.3       1 <0>         0.0365
      4 H1          0.3144   -0.1715    0.3557 H         1 <0>         0.1498
      5 C4          0.9798   -2.0223    1.2346 C.3       1 <0>         0.1032
      6 H2          0.0087   -2.5055    1.1269 H         1 <0>         0.0998
      7 C5          1.6315   -2.4838    2.5126 C.ar      1 <0>        -0.1030
      8 C6          2.9972   -2.3490    2.6797 C.ar      1 <0>        -0.1235
      9 C7          3.5953   -2.7717    3.8519 C.ar      1 <0>        -0.0815
     10 C8          2.8272   -3.3298    4.8578 C.ar      1 <0>        -0.0789
     11 C9          1.4608   -3.4646    4.6902 C.ar      1 <0>        -0.0778
     12 C10         0.8628   -3.0367    3.5198 C.ar      1 <0>        -0.0939
     13 Br1         3.6450   -3.9090    6.4615 Br        1 <0>        -0.0233
     14 N1          1.8333   -2.3785    0.0933 N.3       1 <0>        -0.5440
     15 C11         1.3108   -1.8055   -1.1537 C.3       1 <0>         0.0364
     16 C12         2.2978   -2.0725   -2.2923 C.3       1 <0>        -0.1181
     17 C13         2.4952   -3.5831   -2.4463 C.3       1 <0>        -0.1178
     18 C14         2.9937   -4.1626   -1.1195 C.3       1 <0>        -0.0818
     19 H3          3.9607   -3.7250   -0.8717 H         1 <0>         0.0878
     20 C15         1.9865   -3.8350   -0.0149 C.3       1 <0>         0.0640
     21 C16         3.1374   -5.6805   -1.2470 C.3       1 <0>         0.0790
     22 O1          4.1589   -5.9839   -2.1992 O.3       1 <0>        -0.5708
     23 N2          2.1019    0.1472    1.4125 N.4       1 <0>        -0.6348
     24 H4         -0.9276    1.5984    1.5020 H         1 <0>         0.0729
     25 H5         -1.0293    1.6293    3.2788 H         1 <0>         0.0854
     26 H6          0.5277    1.9317    2.4711 H         1 <0>         0.0531
     27 H7          0.4372   -0.3667    3.3974 H         1 <0>         0.0925
     28 H8         -1.0181   -0.6999    2.4282 H         1 <0>         0.1127
     29 H9          3.5968   -1.9135    1.8941 H         1 <0>         0.1369
     30 H10         4.6623   -2.6666    3.9822 H         1 <0>         0.1424
     31 H11         0.8607   -3.9003    5.4754 H         1 <0>         0.1431
     32 H12        -0.2046   -3.1382    3.3905 H         1 <0>         0.1381
     33 H13         0.3508   -2.2645   -1.3900 H         1 <0>         0.0540
     34 H14         1.1789   -0.7303   -1.0320 H         1 <0>         0.0706
     35 H15         1.9024   -1.6607   -3.2208 H         1 <0>         0.0781
     36 H16         3.2539   -1.6021   -2.0629 H         1 <0>         0.0731
     37 H17         1.5469   -4.0490   -2.7139 H         1 <0>         0.0618
     38 H18         3.2304   -3.7766   -3.2274 H         1 <0>         0.0803
     39 H19         2.3454   -4.2339    0.9339 H         1 <0>         0.0868
     40 H20         1.0233   -4.2845   -0.2566 H         1 <0>         0.0486
     41 H21         3.4064   -6.1026   -0.2787 H         1 <0>         0.0469
     42 H22         2.1918   -6.1083   -1.5799 H         1 <0>         0.0464
     43 H23         4.3048   -6.9307   -2.3312 H         1 <0>         0.3875
     44 H24         2.5443   -0.1610    2.2654 H         1 <0>         0.4302
     45 H25         2.6826   -0.0981    0.6247 H         1 <0>         0.4397
     46 H26         1.9782    1.1482    1.4405 H         1 <0>         0.4322
@<TRIPOS>BOND
     1    1    2 1
     2    1   24 1
     3    1   25 1
     4    1   26 1
     5    2    3 1
     6    2   27 1
     7    2   28 1
     8    3    4 1
     9    3    5 1
    10    3   23 1
    11    5    6 1
    12    5    7 1
    13    5   14 1
    14    7   12 ar
    15    7    8 ar
    16    8    9 ar
    17    8   29 1
    18    9   10 ar
    19    9   30 1
    20   10   11 ar
    21   10   13 1
    22   11   12 ar
    23   11   31 1
    24   12   32 1
    25   14   20 1
    26   14   15 1
    27   15   16 1
    28   15   33 1
    29   15   34 1
    30   16   17 1
    31   16   35 1
    32   16   36 1
    33   17   18 1
    34   17   37 1
    35   17   38 1
    36   18   19 1
    37   18   20 1
    38   18   21 1
    39   20   39 1
    40   20   40 1
    41   21   22 1
    42   21   41 1
    43   21   42 1
    44   22   43 1
    45   23   44 1
    46   23   45 1
    47   23   46 1
@<TRIPOS>MOLECULE
ZINC01078714
   35    37     0     0     0
SMALL
USER_CHARGES
3-(3-chlorophenyl)-1-[2-(2,2-dichlorocyclopropyl)phenyl]-urea
@<TRIPOS>ATOM
      1 C1         -0.9280    3.7495    0.0782 C.ar      1 <0>        -0.1343
      2 C2          0.3429    4.2949    0.0877 C.ar      1 <0>        -0.0908
      3 C3          1.4500    3.4699    0.0626 C.ar      1 <0>        -0.1327
      4 C4          1.2862    2.0912    0.0271 C.ar      1 <0>         0.1842
      5 C5          0.0089    1.5468    0.0171 C.ar      1 <0>        -0.1000
      6 C6         -1.0945    2.3776    0.0366 C.ar      1 <0>        -0.0839
      7 C7         -0.1734    0.0514   -0.0213 C.3       1 <0>        -0.0814
      8 H1          0.3445   -0.4648   -0.8297 H         1 <0>         0.1356
      9 C8         -1.5280   -0.5067    0.4198 C.3       1 <0>        -0.1325
     10 C9         -0.3007   -0.6794    1.3169 C.3       1 <0>        -0.0036
     11 Cl1         0.4178   -2.3288    1.4364 Cl        1 <0>        -0.0907
     12 Cl2        -0.2210    0.3145    2.8191 Cl        1 <0>        -0.0782
     13 N1          2.4061    1.2524    0.0020 N.am      1 <0>        -0.6742
     14 C10         3.5755    1.7044   -0.4925 C.2       1 <0>         0.7075
     15 O1          3.6778    2.8623   -0.8493 O.2       1 <0>        -0.5468
     16 N2          4.6316    0.8729   -0.5915 N.am      1 <0>        -0.6775
     17 C11         5.8056    1.3046   -1.2189 C.ar      1 <0>         0.1780
     18 C12         5.7517    2.2985   -2.1877 C.ar      1 <0>        -0.1238
     19 C13         6.9123    2.7262   -2.8021 C.ar      1 <0>        -0.0835
     20 C14         8.1265    2.1592   -2.4611 C.ar      1 <0>        -0.1279
     21 C15         8.1835    1.1651   -1.5001 C.ar      1 <0>        -0.0126
     22 C16         7.0255    0.7363   -0.8784 C.ar      1 <0>        -0.1440
     23 Cl3         9.7099    0.4556   -1.0755 Cl        1 <0>        -0.0637
     24 H2         -1.7923    4.3968    0.0986 H         1 <0>         0.1265
     25 H3          0.4696    5.3670    0.1153 H         1 <0>         0.1283
     26 H4          2.4422    3.8964    0.0701 H         1 <0>         0.1587
     27 H5         -2.0883    1.9549    0.0240 H         1 <0>         0.1284
     28 H6         -2.2873    0.2077    0.7377 H         1 <0>         0.1265
     29 H7         -1.9011   -1.3903   -0.0982 H         1 <0>         0.1274
     30 H8          2.3406    0.3458    0.3404 H         1 <0>         0.4085
     31 H9          4.5780   -0.0247   -0.2278 H         1 <0>         0.4113
     32 H10         4.8034    2.7391   -2.4577 H         1 <0>         0.1514
     33 H11         6.8709    3.5016   -3.5527 H         1 <0>         0.1376
     34 H12         9.0321    2.4926   -2.9460 H         1 <0>         0.1356
     35 H13         7.0700   -0.0395   -0.1284 H         1 <0>         0.1365
@<TRIPOS>BOND
     1    1    6 ar
     2    1    2 ar
     3    1   24 1
     4    2    3 ar
     5    2   25 1
     6    3    4 ar
     7    3   26 1
     8    4    5 ar
     9    4   13 1
    10    5    6 ar
    11    5    7 1
    12    6   27 1
    13    7    8 1
    14    7   10 1
    15    7    9 1
    16    9   10 1
    17    9   28 1
    18    9   29 1
    19   10   11 1
    20   10   12 1
    21   13   14 am
    22   13   30 1
    23   14   15 2
    24   14   16 am
    25   16   17 1
    26   16   31 1
    27   17   22 ar
    28   17   18 ar
    29   18   19 ar
    30   18   32 1
    31   19   20 ar
    32   19   33 1
    33   20   21 ar
    34   20   34 1
    35   21   22 ar
    36   21   23 1
    37   22   35 1
@<TRIPOS>MOLECULE
ZINC14460432
   52    55     0     0     0
SMALL
USER_CHARGES
(3aS,4S,9bS)-N-tert-butyl-4-(3-chlorophenyl)-3a,4,5,9b-tetrahydro-3H-cyclopenta[c]quinoline-6-carboxamide
@<TRIPOS>ATOM
      1 C1          2.5030    0.3147   -1.2695 C.3       1 <0>        -0.1634
      2 C2          2.4220    1.1864   -0.0147 C.3       1 <0>         0.1711
      3 C3          3.5712    2.1963   -0.0202 C.3       1 <0>        -0.1570
      4 C4          2.5269    0.3012    1.2289 C.3       1 <0>        -0.1641
      5 N1          1.1435    1.9015    0.0014 N.am      1 <0>        -0.7244
      6 C5         -0.0144    1.2118    0.0087 C.2       1 <0>         0.5628
      7 O1          0.0021   -0.0041    0.0020 O.2       1 <0>        -0.5189
      8 C6         -1.3011    1.9316    0.0187 C.ar      1 <0>        -0.1816
      9 C7         -1.3147    3.3250    0.0264 C.ar      1 <0>        -0.0604
     10 C8         -2.5132    4.0039    0.0359 C.ar      1 <0>        -0.1589
     11 C9         -3.7053    3.2982    0.0449 C.ar      1 <0>        -0.0557
     12 C10        -3.7109    1.9208    0.0452 C.ar      1 <0>        -0.1305
     13 C11        -2.5099    1.2054    0.0147 C.ar      1 <0>         0.2022
     14 N2         -2.4276   -0.1759   -0.0350 N.pl3     1 <0>        -0.6151
     15 C12        -3.6922   -0.9220    0.0627 C.3       1 <0>         0.1470
     16 H1         -4.0047   -0.9885    1.1048 H         1 <0>         0.1017
     17 C13        -4.7241   -0.1568   -0.7394 C.3       1 <0>        -0.1197
     18 H2         -4.3752    0.0385   -1.7535 H         1 <0>         0.0911
     19 C14        -4.9714    1.1480    0.0932 C.3       1 <0>        -0.0308
     20 H3         -5.1581    0.8638    1.1288 H         1 <0>         0.0897
     21 C15        -6.2451    1.6605   -0.4810 C.2       1 <0>        -0.1514
     22 C16        -6.9533    0.6301   -0.9307 C.2       1 <0>        -0.1614
     23 C17        -6.1687   -0.6692   -0.7304 C.3       1 <0>        -0.0853
     24 C18        -3.5184   -2.3048   -0.5104 C.ar      1 <0>        -0.0652
     25 C19        -2.7742   -2.4876   -1.6613 C.ar      1 <0>        -0.1067
     26 C20        -2.6103   -3.7562   -2.1848 C.ar      1 <0>        -0.0980
     27 C21        -3.1992   -4.8419   -1.5638 C.ar      1 <0>        -0.1095
     28 C22        -3.9482   -4.6590   -0.4154 C.ar      1 <0>        -0.0292
     29 C23        -4.1076   -3.3894    0.1112 C.ar      1 <0>        -0.0968
     30 Cl1        -4.6885   -6.0218    0.3647 Cl        1 <0>        -0.0665
     31 H4          2.4283    0.9452   -2.1554 H         1 <0>         0.0525
     32 H5          3.4542   -0.2174   -1.2814 H         1 <0>         0.0624
     33 H6          1.6842   -0.4049   -1.2655 H         1 <0>         0.0785
     34 H7          3.5135    2.8174    0.8737 H         1 <0>         0.0618
     35 H8          4.5225    1.6642   -0.0322 H         1 <0>         0.0742
     36 H9          3.4965    2.8269   -0.9062 H         1 <0>         0.0615
     37 H10         1.7081   -0.4183    1.2328 H         1 <0>         0.0804
     38 H11         3.4781   -0.2309    1.2169 H         1 <0>         0.0617
     39 H12         2.4691    0.9223    2.1228 H         1 <0>         0.0526
     40 H13         1.1303    2.8714    0.0067 H         1 <0>         0.3962
     41 H14        -0.3843    3.8734    0.0252 H         1 <0>         0.1239
     42 H15        -2.5236    5.0839    0.0367 H         1 <0>         0.1284
     43 H16        -4.6424    3.8350    0.0520 H         1 <0>         0.1260
     44 H17        -1.8906   -0.4776   -0.8342 H         1 <0>         0.3793
     45 H18        -6.5463    2.6970   -0.5179 H         1 <0>         0.1314
     46 H19        -7.9365    0.6989   -1.3723 H         1 <0>         0.1310
     47 H20        -6.3431   -1.3622   -1.5534 H         1 <0>         0.0746
     48 H21        -6.4140   -1.1307    0.2261 H         1 <0>         0.0827
     49 H22        -2.3177   -1.6391   -2.1492 H         1 <0>         0.1221
     50 H23        -2.0252   -3.8989   -3.0813 H         1 <0>         0.1343
     51 H24        -3.0748   -5.8326   -1.9755 H         1 <0>         0.1348
     52 H25        -4.6926   -3.2459    1.0077 H         1 <0>         0.1344
@<TRIPOS>BOND
     1    1    2 1
     2    1   31 1
     3    1   32 1
     4    1   33 1
     5    2    3 1
     6    2    4 1
     7    2    5 1
     8    3   34 1
     9    3   35 1
    10    3   36 1
    11    4   37 1
    12    4   38 1
    13    4   39 1
    14    5    6 am
    15    5   40 1
    16    6    7 2
    17    6    8 1
    18    8   13 ar
    19    8    9 ar
    20    9   10 ar
    21    9   41 1
    22   10   11 ar
    23   10   42 1
    24   11   12 ar
    25   11   43 1
    26   12   19 1
    27   12   13 ar
    28   13   14 1
    29   14   15 1
    30   14   44 1
    31   15   16 1
    32   15   17 1
    33   15   24 1
    34   17   18 1
    35   17   23 1
    36   17   19 1
    37   19   20 1
    38   19   21 1
    39   21   22 2
    40   21   45 1
    41   22   23 1
    42   22   46 1
    43   23   47 1
    44   23   48 1
    45   24   29 ar
    46   24   25 ar
    47   25   26 ar
    48   25   49 1
    49   26   27 ar
    50   26   50 1
    51   27   28 ar
    52   27   51 1
    53   28   29 ar
    54   28   30 1
    55   29   52 1
@<TRIPOS>MOLECULE
ZINC20680117
   48    51     0     0     0
SMALL
USER_CHARGES
4-[(3aS,4S,9bR)-6-(2-methylprop-2-enoxy)-3a,4,5,9b-tetrahydro-3H-cyclopenta[c]quinolin-4-yl]phenol
@<TRIPOS>ATOM
      1 C1         -5.3510    1.5733   -5.5923 C.3       1 <0>        -0.1159
      2 C2         -4.3619    1.6168   -4.4561 C.2       1 <0>        -0.1444
      3 C3         -4.7617    1.9420   -3.2517 C.2       1 <0>        -0.1728
      4 C4         -2.9129    1.2864   -4.7055 C.3       1 <0>         0.0986
      5 O1         -2.1817    1.3974   -3.4828 O.3       1 <0>        -0.3134
      6 C5         -0.8491    1.1302   -3.5337 C.ar      1 <0>         0.0681
      7 C6         -0.2645    0.7703   -4.7341 C.ar      1 <0>        -0.1771
      8 C7          1.0908    0.4996   -4.7826 C.ar      1 <0>        -0.1302
      9 C8          1.8543    0.5873   -3.6371 C.ar      1 <0>        -0.1123
     10 C9          1.2779    0.9468   -2.4247 C.ar      1 <0>        -0.1151
     11 C10        -0.0759    1.2214   -2.3723 C.ar      1 <0>         0.2012
     12 N1         -0.7196    1.5707   -1.1778 N.pl3     1 <0>        -0.7507
     13 C11        -0.0127    1.0858    0.0080 C.3       1 <0>         0.1990
     14 H1         -0.0297   -0.0136   -0.0235 H         1 <0>         0.0711
     15 C12         1.4231    1.6157   -0.0029 C.3       1 <0>        -0.0944
     16 H2          1.3747    2.7142    0.0281 H         1 <0>         0.0974
     17 C13         2.1661    1.0201   -1.2180 C.3       1 <0>        -0.0076
     18 H3          3.0243    1.6237   -1.5484 H         1 <0>         0.0963
     19 C14         2.5793   -0.3589   -0.7575 C.2       1 <0>        -0.1578
     20 C15         2.5925   -0.4201    0.5507 C.2       1 <0>        -0.1717
     21 C16         2.1964    0.9149    1.1497 C.3       1 <0>        -0.0910
     22 C17        -0.7184    1.5720    1.2477 C.ar      1 <0>        -0.1293
     23 C18        -1.2231    2.8584    1.2949 C.ar      1 <0>        -0.0693
     24 C19        -1.8753    3.3045    2.4280 C.ar      1 <0>        -0.1595
     25 C20        -2.0138    2.4644    3.5233 C.ar      1 <0>         0.1583
     26 C21        -1.5016    1.1760    3.4755 C.ar      1 <0>        -0.2118
     27 C22        -0.8551    0.7327    2.3380 C.ar      1 <0>        -0.0653
     28 O2         -2.6506    2.9027    4.6410 O.3       1 <0>        -0.5110
     29 H4         -4.8332    1.2827   -6.5183 H         1 <0>         0.0629
     30 H5         -5.8043    2.5671   -5.7221 H         1 <0>         0.0711
     31 H6         -6.1374    0.8383   -5.3658 H         1 <0>         0.0709
     32 H7         -4.0397    1.9737   -2.4224 H         1 <0>         0.1102
     33 H8         -5.8194    2.1833   -3.0697 H         1 <0>         0.1011
     34 H9         -2.8320    0.2586   -5.0891 H         1 <0>         0.0703
     35 H10        -2.4990    1.9875   -5.4452 H         1 <0>         0.0702
     36 H11        -0.8638    0.7006   -5.6298 H         1 <0>         0.1240
     37 H12         1.5517    0.2190   -5.7180 H         1 <0>         0.1203
     38 H13         2.9120    0.3738   -3.6829 H         1 <0>         0.1202
     39 H14        -1.6526    2.1427   -1.0664 H         1 <0>         0.4337
     40 H15         2.8482   -1.2443   -1.3523 H         1 <0>         0.1283
     41 H16         2.8675   -1.3584    1.0547 H         1 <0>         0.1288
     42 H17         3.0691    1.5236    1.4289 H         1 <0>         0.0790
     43 H18         1.5339    0.8026    2.0206 H         1 <0>         0.0764
     44 H19        -1.1111    3.5134    0.4436 H         1 <0>         0.1284
     45 H20        -2.2732    4.3079    2.4628 H         1 <0>         0.1284
     46 H21        -1.6084    0.5200    4.3267 H         1 <0>         0.1273
     47 H22        -0.4558   -0.2700    2.3004 H         1 <0>         0.1248
     48 H23        -2.7599    2.2358    5.5090 H         1 <0>         0.4343
@<TRIPOS>BOND
     1    1    2 1
     2    1   29 1
     3    1   30 1
     4    1   31 1
     5    2    3 2
     6    2    4 1
     7    3   32 1
     8    3   33 1
     9    4    5 1
    10    4   34 1
    11    4   35 1
    12    5    6 1
    13    6   11 ar
    14    6    7 ar
    15    7    8 ar
    16    7   36 1
    17    8    9 ar
    18    8   37 1
    19    9   10 ar
    20    9   38 1
    21   10   17 1
    22   10   11 ar
    23   11   12 1
    24   12   13 1
    25   12   39 1
    26   13   14 1
    27   13   15 1
    28   13   22 1
    29   15   16 1
    30   15   21 1
    31   15   17 1
    32   17   18 1
    33   17   19 1
    34   19   20 2
    35   19   40 1
    36   20   21 1
    37   20   41 1
    38   21   42 1
    39   21   43 1
    40   22   27 ar
    41   22   23 ar
    42   23   24 ar
    43   23   44 1
    44   24   25 ar
    45   24   45 1
    46   25   26 ar
    47   25   28 1
    48   26   27 ar
    49   26   46 1
    50   27   47 1
    51   28   48 1
@<TRIPOS>MOLECULE
ZINC05137773
   38    40     0     0     0
SMALL
USER_CHARGES

@<TRIPOS>ATOM
      1 C1          1.3491   -2.3792    2.2784 C.3       1 <0>        -0.1266
      2 C2          0.5896   -1.8640    1.0831 C.ar      1 <0>        -0.0327
      3 C3          0.6380   -2.5516   -0.1140 C.ar      1 <0>        -0.1181
      4 C4         -0.0619   -2.0763   -1.2148 C.ar      1 <0>         0.1841
      5 C5         -0.8091   -0.9104   -1.1090 C.ar      1 <0>        -0.1485
      6 C6         -0.8541   -0.2271    0.0901 C.ar      1 <0>        -0.0637
      7 C7         -0.1600   -0.7060    1.1873 C.ar      1 <0>        -0.1115
      8 Br1        -0.2302    0.2283    2.8298 Br        1 <0>        -0.0466
      9 N1         -0.0142   -2.7708   -2.4292 N.am      1 <0>        -0.6807
     10 C8          0.0968   -4.1139   -2.4335 C.2       1 <0>         0.7060
     11 O1          0.0566   -4.7307   -1.3862 O.2       1 <0>        -0.5493
     12 N2          0.2523   -4.7736   -3.5985 N.am      1 <0>        -0.6629
     13 C9          0.2716   -6.1814   -3.6133 C.2       1 <0>         0.1216
     14 C10         0.2873   -6.8729   -2.4465 C.2       1 <0>        -0.1929
     15 S1          0.3076   -8.5644   -3.0208 S.3       1 <0>         0.0415
     16 C11         0.2928   -8.2278   -4.7611 C.2       1 <0>        -0.1309
     17 C12         0.2687   -6.8691   -4.8306 C.2       1 <0>        -0.1433
     18 C13         0.2472   -6.1677   -6.1856 C.3       1 <0>        -0.0577
     19 C14         0.7129   -7.1529   -7.2583 C.3       1 <0>        -0.1201
     20 C15        -0.1075   -8.4433   -7.1765 C.3       1 <0>        -0.1144
     21 C16         0.2976   -9.1978   -5.8979 C.3       1 <0>        -0.0427
     22 H1          0.7140   -3.0583    2.8473 H         1 <0>         0.0812
     23 H2          2.2393   -2.9105    1.9419 H         1 <0>         0.0733
     24 H3          1.6432   -1.5415    2.9107 H         1 <0>         0.0786
     25 H4          1.2202   -3.4578   -0.1936 H         1 <0>         0.1457
     26 H5         -1.3543   -0.5384   -1.9639 H         1 <0>         0.1349
     27 H6         -1.4347    0.6798    0.1728 H         1 <0>         0.1382
     28 H7         -0.0610   -2.2853   -3.2677 H         1 <0>         0.4110
     29 H8          0.3510   -4.2784   -4.4267 H         1 <0>         0.4067
     30 H9          0.2875   -6.4983   -1.4336 H         1 <0>         0.2218
     31 H10        -0.7669   -5.8364   -6.4094 H         1 <0>         0.0759
     32 H11         0.9176   -5.3085   -6.1629 H         1 <0>         0.0690
     33 H12         0.5832   -6.7036   -8.2429 H         1 <0>         0.0704
     34 H13         1.7669   -7.3840   -7.1040 H         1 <0>         0.0673
     35 H14        -1.1695   -8.1999   -7.1443 H         1 <0>         0.0694
     36 H15         0.1012   -9.0651   -8.0471 H         1 <0>         0.0752
     37 H16         1.2937   -9.6253   -6.0118 H         1 <0>         0.0872
     38 H17        -0.4239   -9.9920   -5.7062 H         1 <0>         0.0836
@<TRIPOS>BOND
     1    1    2 1
     2    1   22 1
     3    1   23 1
     4    1   24 1
     5    2    7 ar
     6    2    3 ar
     7    3    4 ar
     8    3   25 1
     9    4    5 ar
    10    4    9 1
    11    5    6 ar
    12    5   26 1
    13    6    7 ar
    14    6   27 1
    15    7    8 1
    16    9   10 am
    17    9   28 1
    18   10   11 2
    19   10   12 am
    20   12   13 1
    21   12   29 1
    22   13   17 1
    23   13   14 2
    24   14   15 1
    25   14   30 1
    26   15   16 1
    27   16   21 1
    28   16   17 2
    29   17   18 1
    30   18   19 1
    31   18   31 1
    32   18   32 1
    33   19   20 1
    34   19   33 1
    35   19   34 1
    36   20   21 1
    37   20   35 1
    38   20   36 1
    39   21   37 1
    40   21   38 1
@<TRIPOS>MOLECULE
ZINC43666762
   39    40     0     0     0
SMALL
USER_CHARGES

@<TRIPOS>ATOM
      1 C1         -0.0187    1.5258    0.0104 C.3       1 <0>        -0.1577
      2 C2          0.0021   -0.0041    0.0020 C.3       1 <0>         0.2108
      3 H1          0.5123   -0.3556   -0.8948 H         1 <0>         0.0980
      4 C3          0.7309   -0.5033    1.2229 C.ar      1 <0>        -0.1169
      5 C4          0.2630   -0.1872    2.4847 C.ar      1 <0>        -0.0770
      6 C5          0.9315   -0.6452    3.6046 C.ar      1 <0>        -0.1191
      7 C6          2.0678   -1.4195    3.4627 C.ar      1 <0>        -0.0571
      8 C7          2.5353   -1.7363    2.2010 C.ar      1 <0>        -0.1256
      9 C8          1.8643   -1.2820    1.0811 C.ar      1 <0>        -0.1028
     10 C9          2.7973   -1.9179    4.6836 C.3       1 <0>        -0.0322
     11 C10         1.8575   -2.7900    5.5186 C.3       1 <0>        -0.1394
     12 C11         4.0102   -2.7442    4.2512 C.3       1 <0>        -0.1452
     13 C12         3.2647   -0.7255    5.5207 C.3       1 <0>        -0.1391
     14 N1         -1.3723   -0.5112    0.0124 N.pl3     1 <0>        -0.3851
     15 C13        -1.9403   -1.3022   -0.9342 C.2       1 <0>         0.4067
     16 C14        -3.2233   -1.5456   -0.5474 C.2       1 <0>        -0.3202
     17 C15        -3.4379   -0.8846    0.6652 C.2       1 <0>         0.1080
     18 N2         -2.3327   -0.2714    1.0035 N.2       1 <0>        -0.2884
     19 I1         -4.6262   -2.7043   -1.5859 I         1 <0>        -0.0199
     20 N3         -1.3238   -1.7774   -2.0888 N.pl3     1 <0>        -0.8499
     21 H2          1.0039    1.9031    0.0027 H         1 <0>         0.0781
     22 H3         -0.5459    1.8868   -0.8726 H         1 <0>         0.0642
     23 H4         -0.5289    1.8773    0.9072 H         1 <0>         0.0759
     24 H5         -0.6248    0.4177    2.5955 H         1 <0>         0.1340
     25 H6          0.5663   -0.3977    4.5903 H         1 <0>         0.1224
     26 H7          3.4233   -2.3410    2.0902 H         1 <0>         0.1280
     27 H8          2.2274   -1.5326    0.0953 H         1 <0>         0.1193
     28 H9          1.5245   -3.6395    4.9223 H         1 <0>         0.0560
     29 H10         2.3851   -3.1505    6.4017 H         1 <0>         0.0601
     30 H11         0.9934   -2.2014    5.8267 H         1 <0>         0.0576
     31 H12         4.6797   -2.1228    3.6564 H         1 <0>         0.0588
     32 H13         4.5378   -3.1046    5.1343 H         1 <0>         0.0597
     33 H14         3.6772   -3.5937    3.6549 H         1 <0>         0.0583
     34 H15         2.4006   -0.1368    5.8287 H         1 <0>         0.0576
     35 H16         3.7922   -1.0860    6.4037 H         1 <0>         0.0599
     36 H17         3.9342   -0.1042    4.9258 H         1 <0>         0.0565
     37 H18        -4.3588   -0.8834    1.2295 H         1 <0>         0.1849
     38 H19        -0.4004   -1.5464   -2.2757 H         1 <0>         0.4022
     39 H20        -1.8177   -2.3395   -2.7061 H         1 <0>         0.4186
@<TRIPOS>BOND
     1    1    2 1
     2    1   21 1
     3    1   22 1
     4    1   23 1
     5    2    3 1
     6    2    4 1
     7    2   14 1
     8    4    9 ar
     9    4    5 ar
    10    5    6 ar
    11    5   24 1
    12    6    7 ar
    13    6   25 1
    14    7    8 ar
    15    7   10 1
    16    8    9 ar
    17    8   26 1
    18    9   27 1
    19   10   11 1
    20   10   12 1
    21   10   13 1
    22   11   28 1
    23   11   29 1
    24   11   30 1
    25   12   31 1
    26   12   32 1
    27   12   33 1
    28   13   34 1
    29   13   35 1
    30   13   36 1
    31   14   18 1
    32   14   15 1
    33   15   16 2
    34   15   20 1
    35   16   17 1
    36   16   19 1
    37   17   18 2
    38   17   37 1
    39   20   38 1
    40   20   39 1
@<TRIPOS>MOLECULE
ZINC04332024
   42    45     0     0     0
SMALL
USER_CHARGES
1-[(4-chlorophenyl)-hydroxy-BLAHyl]ethanone
@<TRIPOS>ATOM
      1 C1         -1.8064   -1.3256   -1.2725 C.3       1 <0>        -0.1935
      2 C2         -1.2611   -0.7532    0.0106 C.2       1 <0>         0.4085
      3 O1         -1.8645   -0.9129    1.0506 O.2       1 <0>        -0.4442
      4 C3          0.0009   -0.0021    0.0016 C.ar      1 <0>        -0.1262
      5 C4         -0.0177    1.3939    0.0982 C.ar      1 <0>        -0.0996
      6 C5          1.1707    2.0898    0.0895 C.ar      1 <0>        -0.1163
      7 C6          2.3761    1.4159   -0.0090 C.ar      1 <0>         0.0834
      8 C7          2.4183    0.0157   -0.1001 C.ar      1 <0>         0.1177
      9 C8          1.2166   -0.6840   -0.1028 C.ar      1 <0>        -0.0747
     10 C9          1.2734   -2.1556   -0.2404 C.3       1 <0>        -0.0424
     11 H1          1.3710   -2.3965   -1.2989 H         1 <0>         0.0907
     12 C10         0.2374   -3.0517    0.3296 C.2       1 <0>        -0.1710
     13 C11         0.8148   -4.1963    0.6782 C.2       1 <0>        -0.1506
     14 C12         2.3175   -4.1309    0.3930 C.3       1 <0>        -0.0861
     15 C13         2.5782   -2.6228    0.4774 C.3       1 <0>        -0.0876
     16 H2          2.6275   -2.2676    1.5068 H         1 <0>         0.1008
     17 C14         3.7002   -2.0469   -0.3615 C.3       1 <0>         0.1506
     18 H3          3.5400   -2.2880   -1.4123 H         1 <0>         0.0704
     19 N1          3.6759   -0.5876   -0.1721 N.pl3     1 <0>        -0.6276
     20 H4          4.2605   -0.1250   -0.8521 H         1 <0>         0.3679
     21 C15         5.0240   -2.6025    0.0968 C.ar      1 <0>        -0.0814
     22 C16         5.6240   -2.1051    1.2386 C.ar      1 <0>        -0.0740
     23 C17         6.8354   -2.6182    1.6625 C.ar      1 <0>        -0.1128
     24 C18         7.4529   -3.6219    0.9377 C.ar      1 <0>        -0.0306
     25 C19         6.8546   -4.1153   -0.2080 C.ar      1 <0>        -0.1119
     26 C20         5.6405   -3.6054   -0.6278 C.ar      1 <0>        -0.0974
     27 Cl1         8.9781   -4.2615    1.4653 Cl        1 <0>        -0.0690
     28 O2          3.5364    2.1208   -0.0173 O.3       1 <0>        -0.4846
     29 H5         -1.1490   -1.1746   -2.0107 H         1 <0>         0.0744
     30 H6         -1.9759   -2.3953   -1.1500 H         1 <0>         0.0961
     31 H7         -2.7479   -0.8343   -1.5182 H         1 <0>         0.0984
     32 H8         -0.9569    1.9217    0.1745 H         1 <0>         0.1326
     33 H9          1.1623    3.1675    0.1599 H         1 <0>         0.1373
     34 H10        -0.8100   -2.8135    0.4422 H         1 <0>         0.1348
     35 H11         0.3002   -5.0471    1.0997 H         1 <0>         0.1338
     36 H12         2.5434   -4.5117   -0.6030 H         1 <0>         0.0837
     37 H13         2.8836   -4.6688    1.1533 H         1 <0>         0.0784
     38 H14         5.1440   -1.3185    1.8019 H         1 <0>         0.1390
     39 H15         7.3019   -2.2326    2.5570 H         1 <0>         0.1340
     40 H16         7.3360   -4.8991   -0.7741 H         1 <0>         0.1344
     41 H17         5.1736   -3.9903   -1.5224 H         1 <0>         0.1306
     42 H18         3.8322    2.3811   -0.9004 H         1 <0>         0.3840
@<TRIPOS>BOND
     1    1    2 1
     2    1   29 1
     3    1   30 1
     4    1   31 1
     5    2    3 2
     6    2    4 1
     7    4    9 ar
     8    4    5 ar
     9    5    6 ar
    10    5   32 1
    11    6    7 ar
    12    6   33 1
    13    7    8 ar
    14    7   28 1
    15    8   19 1
    16    8    9 ar
    17    9   10 1
    18   10   11 1
    19   10   15 1
    20   10   12 1
    21   12   13 2
    22   12   34 1
    23   13   14 1
    24   13   35 1
    25   14   15 1
    26   14   36 1
    27   14   37 1
    28   15   16 1
    29   15   17 1
    30   17   18 1
    31   17   19 1
    32   17   21 1
    33   19   20 1
    34   21   26 ar
    35   21   22 ar
    36   22   23 ar
    37   22   38 1
    38   23   24 ar
    39   23   39 1
    40   24   25 ar
    41   24   27 1
    42   25   26 ar
    43   25   40 1
    44   26   41 1
    45   28   42 1
@<TRIPOS>MOLECULE
ZINC14457171
   41    44     0     0     0
SMALL
USER_CHARGES
5-[(3aR,4R,9bS)-6,7-dichloro-3a,4,5,9b-tetrahydro-3H-cyclopenta[c]quinolin-4-yl]-2-methoxy-phenol
@<TRIPOS>ATOM
      1 C1         -6.6119   -0.6603    0.5864 C.3       1 <0>         0.0240
      2 O1         -6.0455   -0.5620   -0.7218 O.3       1 <0>        -0.3075
      3 C2         -4.7855   -0.0583   -0.8129 C.ar      1 <0>         0.1091
      4 C3         -4.1097    0.3326    0.3318 C.ar      1 <0>        -0.1965
      5 C4         -2.8288    0.8440    0.2376 C.ar      1 <0>        -0.0587
      6 C5         -2.2191    0.9663   -0.9972 C.ar      1 <0>        -0.1128
      7 C6         -2.8898    0.5830   -2.1437 C.ar      1 <0>        -0.0949
      8 C7         -4.1721    0.0652   -2.0558 C.ar      1 <0>         0.0740
      9 O2         -4.8313   -0.3171   -3.1821 O.3       1 <0>        -0.4849
     10 C8         -0.8226    1.5244   -1.0942 C.3       1 <0>         0.1453
     11 H1         -0.3777    1.2285   -2.0443 H         1 <0>         0.0697
     12 C9         -0.8761    3.0515   -1.0091 C.3       1 <0>        -0.0782
     13 H2         -1.3484    3.4160   -0.0968 H         1 <0>         0.1040
     14 C10        -1.5634    3.5768   -2.3007 C.3       1 <0>        -0.1020
     15 C11        -0.4403    3.5952   -3.3186 C.2       1 <0>        -0.1609
     16 C12         0.7235    3.6217   -2.7189 C.2       1 <0>        -0.1602
     17 C13         0.5452    3.6159   -1.2181 C.3       1 <0>        -0.0189
     18 H3          0.6050    4.6296   -0.8219 H         1 <0>         0.1029
     19 C14         1.5828    2.7500   -0.5662 C.ar      1 <0>        -0.1039
     20 C15         2.8927    3.2112   -0.5391 C.ar      1 <0>        -0.0682
     21 C16         3.8930    2.4582    0.0393 C.ar      1 <0>        -0.1337
     22 C17         3.5968    1.2280    0.6012 C.ar      1 <0>         0.0001
     23 C18         2.2975    0.7617    0.5812 C.ar      1 <0>        -0.0856
     24 C19         1.2840    1.5225   -0.0020 C.ar      1 <0>         0.1613
     25 N1         -0.0116    1.0048    0.0076 N.pl3     1 <0>        -0.6190
     26 Cl1         1.9228   -0.7798    1.2864 Cl        1 <0>        -0.0426
     27 Cl2         4.8538    0.2757    1.3270 Cl        1 <0>        -0.0457
     28 H4         -5.9914   -1.3104    1.2031 H         1 <0>         0.0572
     29 H5         -6.6595    0.3310    1.0371 H         1 <0>         0.0568
     30 H6         -7.6170   -1.0764    0.5169 H         1 <0>         0.1027
     31 H7         -4.5834    0.2375    1.2977 H         1 <0>         0.1345
     32 H8         -2.3031    1.1483    1.1305 H         1 <0>         0.1370
     33 H9         -2.4129    0.6834   -3.1074 H         1 <0>         0.1361
     34 H10        -5.3534    0.3870   -3.5905 H         1 <0>         0.3871
     35 H11        -2.3561    2.8986   -2.6164 H         1 <0>         0.0793
     36 H12        -1.9586    4.5804   -2.1439 H         1 <0>         0.0842
     37 H13        -0.5805    3.5873   -4.3894 H         1 <0>         0.1295
     38 H14         1.6770    3.6448   -3.2257 H         1 <0>         0.1289
     39 H15         3.1304    4.1703   -0.9751 H         1 <0>         0.1387
     40 H16         4.9074    2.8285    0.0543 H         1 <0>         0.1422
     41 H17         0.0021   -0.0041    0.0020 H         1 <0>         0.3697
@<TRIPOS>BOND
     1    1    2 1
     2    1   28 1
     3    1   29 1
     4    1   30 1
     5    2    3 1
     6    3    8 ar
     7    3    4 ar
     8    4    5 ar
     9    4   31 1
    10    5    6 ar
    11    5   32 1
    12    6    7 ar
    13    6   10 1
    14    7    8 ar
    15    7   33 1
    16    8    9 1
    17    9   34 1
    18   10   11 1
    19   10   25 1
    20   10   12 1
    21   12   13 1
    22   12   17 1
    23   12   14 1
    24   14   15 1
    25   14   35 1
    26   14   36 1
    27   15   16 2
    28   15   37 1
    29   16   17 1
    30   16   38 1
    31   17   18 1
    32   17   19 1
    33   19   24 ar
    34   19   20 ar
    35   20   21 ar
    36   20   39 1
    37   21   22 ar
    38   21   40 1
    39   22   23 ar
    40   22   27 1
    41   23   24 ar
    42   23   26 1
    43   24   25 1
    44   25   41 1
@<TRIPOS>MOLECULE
ZINC19331723
   42    44     0     0     0
SMALL
USER_CHARGES
1-[(2R,4R,5R)-2,4-bis(2-chlorophenyl)-6-methyl-2,3,4,5-tetrahydropyrimidin-5-yl]ethanone
@<TRIPOS>ATOM
      1 C1          0.9194    3.2854    1.9018 C.3       1 <0>        -0.1216
      2 C2          1.6833    2.1802    1.2190 C.2       1 <0>         0.1733
      3 N1          2.8357    2.5973    1.5330 N.pl3     1 <0>        -0.6847
      4 C3          3.9298    2.7805    0.5880 C.3       1 <0>         0.3228
      5 H1          4.8402    2.3702    1.0493 H         1 <0>         0.1123
      6 N2          3.6714    2.0423   -0.6543 N.3       1 <0>        -0.6524
      7 C4          2.3286    2.3656   -1.1668 C.3       1 <0>         0.2114
      8 H2          2.2443    3.4577   -1.2678 H         1 <0>         0.0703
      9 C5          1.2954    1.8055   -0.1842 C.2       1 <0>        -0.3569
     10 H3          2.9849    2.8267    2.5984 H         1 <0>         0.4360
     11 C6          0.0196    1.0040   -0.1556 C.2       1 <0>         0.4561
     12 O1          0.0643   -0.1991   -0.0625 O.2       1 <0>        -0.4601
     13 C7         -1.3119    1.7035   -0.2496 C.3       1 <0>        -0.1995
     14 C8          2.1360    1.7352   -2.5218 C.ar      1 <0>        -0.0748
     15 C9          2.8836    0.6298   -2.8827 C.ar      1 <0>        -0.0854
     16 C10         2.7074    0.0517   -4.1258 C.ar      1 <0>        -0.1164
     17 C11         1.7826    0.5779   -5.0087 C.ar      1 <0>        -0.1090
     18 C12         1.0344    1.6826   -4.6490 C.ar      1 <0>        -0.1140
     19 C13         1.2069    2.2590   -3.4028 C.ar      1 <0>        -0.0297
     20 Cl1         0.2622    3.6423   -2.9475 Cl        1 <0>        -0.0682
     21 C14         4.0726    4.2471    0.2723 C.ar      1 <0>        -0.1323
     22 C15         2.9888    5.0935    0.4138 C.ar      1 <0>        -0.1100
     23 C16         3.1196    6.4386    0.1239 C.ar      1 <0>        -0.1132
     24 C17         4.3345    6.9385   -0.3070 C.ar      1 <0>        -0.0986
     25 C18         5.4187    6.0935   -0.4485 C.ar      1 <0>        -0.1078
     26 C19         5.2897    4.7477   -0.1537 C.ar      1 <0>        -0.0255
     27 Cl2         6.6533    3.6868   -0.3243 Cl        1 <0>        -0.0590
     28 H4          1.3213    3.4376    2.9144 H         1 <0>         0.0702
     29 H5         -0.1437    3.0104    1.9668 H         1 <0>         0.0704
     30 H6          1.0230    4.2148    1.3226 H         1 <0>         0.0967
     31 H7          4.4219    2.3204   -1.4089 H         1 <0>         0.3579
     32 H8         -1.1512    2.7889   -0.3275 H         1 <0>         0.0807
     33 H9         -1.9055    1.4843    0.6502 H         1 <0>         0.0864
     34 H10        -1.8509    1.3478   -1.1401 H         1 <0>         0.0895
     35 H11         3.6058    0.2181   -2.1933 H         1 <0>         0.1410
     36 H12         3.2920   -0.8116   -4.4074 H         1 <0>         0.1283
     37 H13         1.6448    0.1254   -5.9795 H         1 <0>         0.1305
     38 H14         0.3118    2.0934   -5.3386 H         1 <0>         0.1323
     39 H15         2.0397    4.7036    0.7507 H         1 <0>         0.1501
     40 H16         2.2724    7.0994    0.2343 H         1 <0>         0.1313
     41 H17         4.4361    7.9897   -0.5334 H         1 <0>         0.1347
     42 H18         6.3676    6.4841   -0.7854 H         1 <0>         0.1369
@<TRIPOS>BOND
     1    1   28 1
     2    1   29 1
     3    1   30 1
     4    1    2 1
     5    2    9 2
     6    2    3 1
     7    3    4 1
     8    3   10 1
     9    4    5 1
    10    4    6 1
    11    4   21 1
    12    6    7 1
    13    6   31 1
    14    7    8 1
    15    7   14 1
    16    7    9 1
    17    9   11 1
    18   11   12 2
    19   11   13 1
    20   13   32 1
    21   13   33 1
    22   13   34 1
    23   14   19 ar
    24   14   15 ar
    25   15   16 ar
    26   15   35 1
    27   16   17 ar
    28   16   36 1
    29   17   18 ar
    30   17   37 1
    31   18   19 ar
    32   18   38 1
    33   19   20 1
    34   21   26 ar
    35   21   22 ar
    36   22   23 ar
    37   22   39 1
    38   23   24 ar
    39   23   40 1
    40   24   25 ar
    41   24   41 1
    42   25   26 ar
    43   25   42 1
    44   26   27 1
@<TRIPOS>MOLECULE
ZINC37776807
   39    41     0     0     0
SMALL
USER_CHARGES

@<TRIPOS>ATOM
      1 C1          1.7790    1.2804    0.5890 C.3       1 <0>        -0.1028
      2 C2          1.3801   -0.1634    0.4237 C.ar      1 <0>        -0.1154
      3 C3          1.8741   -0.9001   -0.6369 C.ar      1 <0>        -0.0820
      4 C4          1.5101   -2.2252   -0.7916 C.ar      1 <0>        -0.0979
      5 C5          0.6492   -2.8201    0.1142 C.ar      1 <0>        -0.1460
      6 C6          0.1501   -2.0884    1.1785 C.ar      1 <0>         0.0714
      7 C7          0.5220   -0.7549    1.3384 C.ar      1 <0>         0.2002
      8 N1          0.0251   -0.0123    2.4164 N.pl3     1 <0>        -0.7360
      9 C8         -0.3880   -0.6928    3.6462 C.3       1 <0>         0.1986
     10 H1         -0.0125   -1.7160    3.6559 H         1 <0>         0.1140
     11 C9          0.1238    0.0772    4.8821 C.3       1 <0>        -0.1296
     12 C10        -1.0151   -0.1381    5.9013 C.3       1 <0>        -0.0736
     13 C11        -2.2566   -0.3648    5.0657 C.ar      1 <0>        -0.1224
     14 C12        -1.8968   -0.6857    3.7691 C.ar      1 <0>        -0.0844
     15 C13        -2.8751   -0.9388    2.8220 C.ar      1 <0>        -0.0872
     16 C14        -4.2120   -0.8741    3.1652 C.ar      1 <0>        -0.1110
     17 C15        -4.5783   -0.5557    4.4583 C.ar      1 <0>        -0.1424
     18 C16        -3.6003   -0.2968    5.4125 C.ar      1 <0>         0.1109
     19 O1         -3.9574    0.0160    6.6858 O.3       1 <0>        -0.4981
     20 O2         -0.6967   -2.6713    2.0690 O.3       1 <0>        -0.3031
     21 C17        -1.0294   -4.0430    1.8455 C.3       1 <0>         0.0219
     22 Br1         2.1896   -3.2267   -2.2445 Br        1 <0>        -0.0538
     23 H2          2.6807    1.3408    1.1984 H         1 <0>         0.0732
     24 H3          1.9723    1.7184   -0.3902 H         1 <0>         0.0710
     25 H4          0.9725    1.8264    1.0784 H         1 <0>         0.0620
     26 H5          2.5456   -0.4396   -1.3464 H         1 <0>         0.1333
     27 H6          0.3663   -3.8550   -0.0093 H         1 <0>         0.1363
     28 H7         -0.0456    0.9528    2.3489 H         1 <0>         0.3998
     29 H8          1.0568   -0.3521    5.2472 H         1 <0>         0.0829
     30 H9          0.2459    1.1364    4.6555 H         1 <0>         0.0773
     31 H10        -0.8099   -1.0127    6.5187 H         1 <0>         0.0837
     32 H11        -1.1360    0.7469    6.5260 H         1 <0>         0.0759
     33 H12        -2.5916   -1.1877    1.8100 H         1 <0>         0.1211
     34 H13        -4.9704   -1.0721    2.4222 H         1 <0>         0.1260
     35 H14        -5.6229   -0.5047    4.7277 H         1 <0>         0.1283
     36 H15        -4.0726    0.9636    6.8405 H         1 <0>         0.3877
     37 H16        -1.5105   -4.1464    0.8729 H         1 <0>         0.0554
     38 H17        -0.1212   -4.6453    1.8674 H         1 <0>         0.0550
     39 H18        -1.7102   -4.3835    2.6257 H         1 <0>         0.0999
@<TRIPOS>BOND
     1    1    2 1
     2    1   23 1
     3    1   24 1
     4    1   25 1
     5    2    7 ar
     6    2    3 ar
     7    3    4 ar
     8    3   26 1
     9    4    5 ar
    10    4   22 1
    11    5    6 ar
    12    5   27 1
    13    6    7 ar
    14    6   20 1
    15    7    8 1
    16    8    9 1
    17    8   28 1
    18    9   10 1
    19    9   14 1
    20    9   11 1
    21   11   12 1
    22   11   29 1
    23   11   30 1
    24   12   13 1
    25   12   31 1
    26   12   32 1
    27   13   18 ar
    28   13   14 ar
    29   14   15 ar
    30   15   16 ar
    31   15   33 1
    32   16   17 ar
    33   16   34 1
    34   17   18 ar
    35   17   35 1
    36   18   19 1
    37   19   36 1
    38   20   21 1
    39   21   37 1
    40   21   38 1
    41   21   39 1
@<TRIPOS>MOLECULE
ZINC49300351
   35    36     0     0     0
SMALL
USER_CHARGES

@<TRIPOS>ATOM
      1 C1          0.0657    1.2428   -0.6260 C.ar      1 <0>        -0.0548
      2 C2          1.2512    1.9523   -0.6219 C.ar      1 <0>        -0.1176
      3 C3          2.3815    1.4098   -0.0264 C.ar      1 <0>         0.2027
      4 C4          2.3170    0.1534    0.5644 C.ar      1 <0>        -0.0728
      5 C5          1.1285   -0.5514    0.5571 C.ar      1 <0>        -0.0517
      6 C6          0.0039   -0.0072   -0.0375 C.ar      1 <0>        -0.1156
      7 I1         -1.7961   -1.0790   -0.0464 I         1 <0>        -0.0273
      8 Cl1         3.7280   -0.5299    1.3100 Cl        1 <0>        -0.0554
      9 N1          3.5843    2.1266   -0.0212 N.am      1 <0>        -0.6812
     10 C7          3.5681    3.4709   -0.1160 C.2       1 <0>         0.7059
     11 O1          2.5094    4.0685   -0.1029 O.2       1 <0>        -0.5647
     12 N2          4.7255    4.1527   -0.2254 N.am      1 <0>        -0.7358
     13 C8          4.7079    5.6140   -0.3284 C.3       1 <0>         0.1408
     14 C9          6.1422    6.1347   -0.4409 C.3       1 <0>        -0.1004
     15 H1          6.6443    5.6476   -1.2769 H         1 <0>         0.0813
     16 C10         6.1239    7.6522   -0.6637 C.3       1 <0>        -0.1123
     17 C11         7.5536    8.1167   -0.9497 C.3       1 <0>        -0.0923
     18 C12         8.4923    7.5665    0.0838 C.2       1 <0>        -0.1542
     19 C13         8.2087    6.5757    0.8670 C.2       1 <0>        -0.1589
     20 C14         6.8994    5.8405    0.8559 C.3       1 <0>        -0.0865
     21 H2         -0.8150    1.6667   -1.0854 H         1 <0>         0.1401
     22 H3          1.2984    2.9283   -1.0820 H         1 <0>         0.1655
     23 H4          1.0774   -1.5280    1.0155 H         1 <0>         0.1441
     24 H5          4.4293    1.6556    0.0506 H         1 <0>         0.4114
     25 H6          5.5702    3.6759   -0.2359 H         1 <0>         0.3995
     26 H7          4.1438    5.9091   -1.2132 H         1 <0>         0.0731
     27 H8          4.2371    6.0352    0.5598 H         1 <0>         0.0725
     28 H9          5.4844    7.8900   -1.5138 H         1 <0>         0.0716
     29 H10         5.7492    8.1494    0.2310 H         1 <0>         0.0699
     30 H11         7.8568    7.7663   -1.9363 H         1 <0>         0.0748
     31 H12         7.5907    9.2059   -0.9282 H         1 <0>         0.0751
     32 H13         9.4652    8.0255    0.1798 H         1 <0>         0.1032
     33 H14         8.9624    6.2548    1.5709 H         1 <0>         0.1033
     34 H15         6.2991    6.1642    1.7062 H         1 <0>         0.0770
     35 H16         7.0821    4.7686    0.9324 H         1 <0>         0.0695
@<TRIPOS>BOND
     1    1    6 ar
     2    1    2 ar
     3    1   21 1
     4    2    3 ar
     5    2   22 1
     6    3    4 ar
     7    3    9 1
     8    4    5 ar
     9    4    8 1
    10    5    6 ar
    11    5   23 1
    12    6    7 1
    13    9   10 am
    14    9   24 1
    15   10   11 2
    16   10   12 am
    17   12   13 1
    18   12   25 1
    19   13   14 1
    20   13   26 1
    21   13   27 1
    22   14   15 1
    23   14   20 1
    24   14   16 1
    25   16   17 1
    26   16   28 1
    27   16   29 1
    28   17   18 1
    29   17   30 1
    30   17   31 1
    31   18   19 2
    32   18   32 1
    33   19   20 1
    34   19   33 1
    35   20   34 1
    36   20   35 1
@<TRIPOS>MOLECULE
ZINC03844602
   53    57     0     0     0
SMALL
USER_CHARGES
(1-benzoyl-6-nitro-2-phenyl-indol-3-yl) benzoate
@<TRIPOS>ATOM
      1 C1         -1.9475    1.2672    5.1587 C.ar      1 <0>        -0.0947
      2 C2         -0.9762    0.9087    4.2407 C.ar      1 <0>        -0.1148
      3 C3         -1.3147    0.6988    2.9201 C.ar      1 <0>        -0.0823
      4 C4         -2.6413    0.8488    2.5104 C.ar      1 <0>        -0.0640
      5 C5         -3.6154    1.2165    3.4411 C.ar      1 <0>        -0.0963
      6 C6         -3.2639    1.4172    4.7598 C.ar      1 <0>        -0.1136
      7 C7         -3.0113    0.6257    1.0982 C.2       1 <0>         0.1830
      8 C8         -2.3276    1.0982    0.0232 C.2       1 <0>         0.0215
      9 C9         -3.0456    0.6477   -1.1738 C.ar      1 <0>        -0.0470
     10 C10        -2.8293    0.8057   -2.5444 C.ar      1 <0>        -0.0570
     11 C11        -3.6974    0.2436   -3.4382 C.ar      1 <0>        -0.0774
     12 C12        -4.7887   -0.4894   -2.9943 C.ar      1 <0>        -0.0161
     13 C13        -5.0164   -0.6635   -1.6455 C.ar      1 <0>        -0.0451
     14 C14        -4.1466   -0.1002   -0.7193 C.ar      1 <0>         0.1144
     15 N1         -4.1092   -0.0979    0.6632 N.am      1 <0>        -0.4854
     16 C15        -5.0050   -0.7067    1.4652 C.2       1 <0>         0.5964
     17 O1         -5.9456   -0.0798    1.9115 O.2       1 <0>        -0.4175
     18 C16        -4.8436   -2.1361    1.8018 C.ar      1 <0>        -0.1698
     19 C17        -3.7129   -2.8342    1.3731 C.ar      1 <0>        -0.0591
     20 C18        -3.5662   -4.1675    1.6950 C.ar      1 <0>        -0.1278
     21 C19        -4.5414   -4.8159    2.4319 C.ar      1 <0>        -0.0703
     22 C20        -5.6670   -4.1315    2.8554 C.ar      1 <0>        -0.1291
     23 C21        -5.8239   -2.7966    2.5451 C.ar      1 <0>        -0.0456
     24 N2         -5.7170   -1.0906   -3.9779 N.pl3     1 <0>         0.0293
     25 O2         -6.7254   -1.6571   -3.5963 O.2       1 <0>        -0.1588
     26 O3         -5.4724   -1.0189   -5.1689 O.3       1 <0>        -0.1462
     27 O4         -1.1957    1.8510    0.0518 O.3       1 <0>        -0.2469
     28 C22        -0.0221    1.1906    0.0484 C.2       1 <0>         0.4986
     29 O5         -0.0085   -0.0240    0.0206 O.2       1 <0>        -0.4825
     30 C23         1.2488    1.9431    0.0722 C.ar      1 <0>        -0.1296
     31 C24         1.2369    3.3391    0.0984 C.ar      1 <0>        -0.0600
     32 C25         2.4273    4.0354    0.1269 C.ar      1 <0>        -0.1312
     33 C26         3.6315    3.3539    0.1175 C.ar      1 <0>        -0.0778
     34 C27         3.6507    1.9707    0.0854 C.ar      1 <0>        -0.1301
     35 C28         2.4676    1.2617    0.0629 C.ar      1 <0>        -0.0520
     36 H1         -1.6769    1.4304    6.1915 H         1 <0>         0.1320
     37 H2          0.0493    0.7927    4.5590 H         1 <0>         0.1332
     38 H3         -0.5557    0.4187    2.2047 H         1 <0>         0.1247
     39 H4         -4.6424    1.3389    3.1300 H         1 <0>         0.1301
     40 H5         -4.0170    1.6972    5.4814 H         1 <0>         0.1329
     41 H6         -1.9817    1.3746   -2.8970 H         1 <0>         0.1534
     42 H7         -3.5324    0.3706   -4.4980 H         1 <0>         0.1623
     43 H8         -5.8682   -1.2363   -1.3097 H         1 <0>         0.1561
     44 H9         -2.9531   -2.3304    0.7940 H         1 <0>         0.1289
     45 H10        -2.6901   -4.7076    1.3675 H         1 <0>         0.1356
     46 H11        -4.4238   -5.8610    2.6773 H         1 <0>         0.1353
     47 H12        -6.4246   -4.6437    3.4300 H         1 <0>         0.1383
     48 H13        -6.7030   -2.2637    2.8760 H         1 <0>         0.1399
     49 H14         0.2977    3.8724    0.1009 H         1 <0>         0.1397
     50 H15         2.4196    5.1151    0.1520 H         1 <0>         0.1349
     51 H16         4.5607    3.9040    0.1357 H         1 <0>         0.1326
     52 H17         4.5940    1.4449    0.0782 H         1 <0>         0.1359
     53 H18         2.4839    0.1821    0.0379 H         1 <0>         0.1389
@<TRIPOS>BOND
     1    1    6 ar
     2    1    2 ar
     3    1   36 1
     4    2    3 ar
     5    2   37 1
     6    3    4 ar
     7    3   38 1
     8    4    5 ar
     9    4    7 1
    10    5    6 ar
    11    5   39 1
    12    6   40 1
    13    7   15 1
    14    7    8 2
    15    8    9 1
    16    8   27 1
    17    9   14 ar
    18    9   10 ar
    19   10   11 ar
    20   10   41 1
    21   11   12 ar
    22   11   42 1
    23   12   13 ar
    24   12   24 1
    25   13   14 ar
    26   13   43 1
    27   14   15 1
    28   15   16 am
    29   16   17 2
    30   16   18 1
    31   18   23 ar
    32   18   19 ar
    33   19   20 ar
    34   19   44 1
    35   20   21 ar
    36   20   45 1
    37   21   22 ar
    38   21   46 1
    39   22   23 ar
    40   22   47 1
    41   23   48 1
    42   24   25 2
    43   24   26 1
    44   27   28 1
    45   28   29 2
    46   28   30 1
    47   30   35 ar
    48   30   31 ar
    49   31   32 ar
    50   31   49 1
    51   32   33 ar
    52   32   50 1
    53   33   34 ar
    54   33   51 1
    55   34   35 ar
    56   34   52 1
    57   35   53 1
@<TRIPOS>MOLECULE
ZINC09147765
   53    57     0     0     0
SMALL
USER_CHARGES
N-benzothiazol-2-yl-N-[(4-ethoxyphenyl)methyleneamino]-2-oxo-chromene-3-carboxamide
@<TRIPOS>ATOM
      1 C1         -3.4935   10.4646    0.5913 C.3       1 <0>        -0.1546
      2 C2         -2.3036    9.5066    0.5073 C.3       1 <0>         0.0524
      3 O1         -1.1232   10.2409    0.1764 O.3       1 <0>        -0.3115
      4 C3          0.0312    9.5341    0.0623 C.ar      1 <0>         0.1595
      5 C4          1.2145   10.1877   -0.2573 C.ar      1 <0>        -0.1570
      6 C5          2.3878    9.4748   -0.3746 C.ar      1 <0>        -0.0312
      7 C6          2.3861    8.0921   -0.1710 C.ar      1 <0>        -0.1122
      8 C7          1.1921    7.4381    0.1452 C.ar      1 <0>        -0.0355
      9 C8          0.0246    8.1600    0.2651 C.ar      1 <0>        -0.2175
     10 C9          3.6386    7.3251   -0.2952 C.2       1 <0>         0.1573
     11 N1          3.6348    6.0406   -0.1057 N.2       1 <0>        -0.2850
     12 N2          4.8416    5.3290   -0.1055 N.am      1 <0>        -0.3543
     13 C10         6.0464    6.0085   -0.1817 C.2       1 <0>         0.3238
     14 N3          6.2581    7.2937   -0.3477 N.2       1 <0>        -0.5456
     15 C11         7.4985    7.8236   -0.4040 C.ar      1 <0>         0.0947
     16 C12         7.8620    9.1795   -0.5772 C.ar      1 <0>        -0.0685
     17 C13         9.1802    9.5521   -0.6111 C.ar      1 <0>        -0.1053
     18 C14        10.2006    8.6212   -0.4785 C.ar      1 <0>        -0.0999
     19 C15         9.8818    7.2865   -0.3080 C.ar      1 <0>        -0.0582
     20 C16         8.5641    6.9038   -0.2723 C.ar      1 <0>        -0.1781
     21 S1          7.7082    5.3599   -0.0713 S.3       1 <0>         0.1187
     22 C17         4.8304    3.9833   -0.0313 C.2       1 <0>         0.6087
     23 O2          5.8776    3.3700    0.0526 O.2       1 <0>        -0.4559
     24 C18         3.5514    3.2560   -0.0517 C.2       1 <0>        -0.2641
     25 C19         2.4265    3.7909    0.5533 C.2       1 <0>         0.0832
     26 C20         1.2150    3.0559    0.5090 C.ar      1 <0>        -0.1736
     27 C21         0.0561    3.5688    1.1115 C.ar      1 <0>        -0.0413
     28 C22        -1.1069    2.8560    1.0646 C.ar      1 <0>        -0.1447
     29 C23        -1.1542    1.6277    0.4195 C.ar      1 <0>        -0.0446
     30 C24        -0.0265    1.1021   -0.1741 C.ar      1 <0>        -0.1392
     31 C25         1.1708    1.8089   -0.1402 C.ar      1 <0>         0.1653
     32 O3          2.2724    1.2946   -0.7276 O.3       1 <0>        -0.2576
     33 C26         3.4447    1.9505   -0.7141 C.2       1 <0>         0.5295
     34 O4          4.4202    1.4612   -1.2518 O.2       1 <0>        -0.4271
     35 H1         -3.3038   11.2132    1.3605 H         1 <0>         0.0678
     36 H2         -3.6307   10.9587   -0.3706 H         1 <0>         0.0678
     37 H3         -4.3939    9.9044    0.8437 H         1 <0>         0.0807
     38 H4         -2.4933    8.7580   -0.2619 H         1 <0>         0.0652
     39 H5         -2.1663    9.0125    1.4692 H         1 <0>         0.0651
     40 H6          1.2148   11.2562   -0.4145 H         1 <0>         0.1399
     41 H7          3.3072    9.9837   -0.6238 H         1 <0>         0.1407
     42 H8          1.1853    6.3691    0.2991 H         1 <0>         0.1309
     43 H9         -0.8979    7.6560    0.5131 H         1 <0>         0.1343
     44 H10         4.5595    7.8315   -0.5440 H         1 <0>         0.1894
     45 H11         7.0922    9.9295   -0.6835 H         1 <0>         0.1330
     46 H12         9.4307   10.5941   -0.7446 H         1 <0>         0.1355
     47 H13        11.2333    8.9359   -0.5077 H         1 <0>         0.1394
     48 H14        10.6646    6.5500   -0.2030 H         1 <0>         0.1346
     49 H15         2.4711    4.7494    1.0489 H         1 <0>         0.1696
     50 H16         0.0845    4.5255    1.6117 H         1 <0>         0.1419
     51 H17        -1.9978    3.2522    1.5292 H         1 <0>         0.1397
     52 H18        -2.0825    1.0767    0.3858 H         1 <0>         0.1449
     53 H19        -0.0738    0.1435   -0.6694 H         1 <0>         0.1489
@<TRIPOS>BOND
     1    1    2 1
     2    1   35 1
     3    1   36 1
     4    1   37 1
     5    2    3 1
     6    2   38 1
     7    2   39 1
     8    3    4 1
     9    4    9 ar
    10    4    5 ar
    11    5    6 ar
    12    5   40 1
    13    6    7 ar
    14    6   41 1
    15    7    8 ar
    16    7   10 1
    17    8    9 ar
    18    8   42 1
    19    9   43 1
    20   10   11 2
    21   10   44 1
    22   11   12 1
    23   12   13 1
    24   12   22 am
    25   13   21 1
    26   13   14 2
    27   14   15 1
    28   15   20 ar
    29   15   16 ar
    30   16   17 ar
    31   16   45 1
    32   17   18 ar
    33   17   46 1
    34   18   19 ar
    35   18   47 1
    36   19   20 ar
    37   19   48 1
    38   20   21 1
    39   22   23 2
    40   22   24 1
    41   24   33 1
    42   24   25 2
    43   25   26 1
    44   25   49 1
    45   26   31 ar
    46   26   27 ar
    47   27   28 ar
    48   27   50 1
    49   28   29 ar
    50   28   51 1
    51   29   30 ar
    52   29   52 1
    53   30   31 ar
    54   30   53 1
    55   31   32 1
    56   32   33 1
    57   33   34 2
@<TRIPOS>MOLECULE
ZINC00777998
   39    41     0     0     0
SMALL
USER_CHARGES
[4-(4-cyanophenoxy)phenyl] 4-bromo-3-nitro-benzoate
@<TRIPOS>ATOM
      1 C1          1.5237    1.3682   -1.2474 C.ar      1 <0>        -0.0529
      2 C2          1.5401   -0.0086   -1.2163 C.ar      1 <0>        -0.1405
      3 C3          1.2117   -0.6833   -0.0463 C.ar      1 <0>         0.1120
      4 C4          0.8654    0.0277    1.0967 C.ar      1 <0>        -0.1193
      5 C5          0.8468    1.4046    1.0743 C.ar      1 <0>        -0.0514
      6 C6          1.1764    2.0869   -0.1001 C.ar      1 <0>        -0.0259
      7 C7          1.1585    3.5186   -0.1278 C.1       1 <0>         0.2476
      8 N1          1.1442    4.6543   -0.1498 N.1       1 <0>        -0.4028
      9 O1          1.2287   -2.0403   -0.0201 O.3       1 <0>        -0.2504
     10 C8          2.4298   -2.6659   -0.1390 C.ar      1 <0>         0.1317
     11 C9          3.6006   -1.9217   -0.1594 C.ar      1 <0>        -0.1795
     12 C10         4.8209   -2.5576   -0.2754 C.ar      1 <0>        -0.0729
     13 C11         4.8756   -3.9398   -0.3821 C.ar      1 <0>         0.0445
     14 C12         3.7046   -4.6835   -0.3670 C.ar      1 <0>        -0.0729
     15 C13         2.4845   -4.0481   -0.2457 C.ar      1 <0>        -0.1270
     16 O2          6.0768   -4.5655   -0.5011 O.3       1 <0>        -0.2794
     17 C14         6.8270   -4.6661    0.6133 C.2       1 <0>         0.5061
     18 O3          6.4630   -4.1301    1.6411 O.2       1 <0>        -0.4666
     19 C15         8.0917   -5.4279    0.5857 C.ar      1 <0>        -0.1096
     20 C16         8.5100   -6.0501   -0.5928 C.ar      1 <0>        -0.0066
     21 C17         9.6945   -6.7555   -0.6134 C.ar      1 <0>        -0.0995
     22 C18        10.4633   -6.8575    0.5342 C.ar      1 <0>        -0.0166
     23 C19        10.0515   -6.2474    1.7070 C.ar      1 <0>        -0.0351
     24 C20         8.8716   -5.5341    1.7392 C.ar      1 <0>         0.0149
     25 N2         10.8796   -6.3607    2.9286 N.pl3     1 <0>         0.0210
     26 O4         10.5188   -5.8242    3.9609 O.2       1 <0>        -0.1506
     27 O5         11.9219   -6.9903    2.9016 O.3       1 <0>        -0.1205
     28 Br1        12.0825   -7.8336    0.4990 Br        1 <0>         0.0389
     29 H1          1.7830    1.8917   -2.1557 H         1 <0>         0.1431
     30 H2          1.8083   -0.5648   -2.1024 H         1 <0>         0.1437
     31 H3          0.6101   -0.5004    2.0035 H         1 <0>         0.1470
     32 H4          0.5777    1.9563    1.9629 H         1 <0>         0.1452
     33 H5          3.5579   -0.8454   -0.0804 H         1 <0>         0.1407
     34 H6          5.7326   -1.9787   -0.2872 H         1 <0>         0.1350
     35 H7          3.7472   -5.7595   -0.4497 H         1 <0>         0.1442
     36 H8          1.5729   -4.6272   -0.2336 H         1 <0>         0.1472
     37 H9          7.9091   -5.9754   -1.4870 H         1 <0>         0.1703
     38 H10        10.0211   -7.2337   -1.5251 H         1 <0>         0.1695
     39 H11         8.5512   -5.0590    2.6547 H         1 <0>         0.1773
@<TRIPOS>BOND
     1    1    6 ar
     2    1    2 ar
     3    1   29 1
     4    2    3 ar
     5    2   30 1
     6    3    4 ar
     7    3    9 1
     8    4    5 ar
     9    4   31 1
    10    5    6 ar
    11    5   32 1
    12    6    7 1
    13    7    8 3
    14    9   10 1
    15   10   15 ar
    16   10   11 ar
    17   11   12 ar
    18   11   33 1
    19   12   13 ar
    20   12   34 1
    21   13   14 ar
    22   13   16 1
    23   14   15 ar
    24   14   35 1
    25   15   36 1
    26   16   17 1
    27   17   18 2
    28   17   19 1
    29   19   24 ar
    30   19   20 ar
    31   20   21 ar
    32   20   37 1
    33   21   22 ar
    34   21   38 1
    35   22   23 ar
    36   22   28 1
    37   23   24 ar
    38   23   25 1
    39   24   39 1
    40   25   26 2
    41   25   27 1
@<TRIPOS>MOLECULE
ZINC39713204
   43    46     0     0     0
SMALL
USER_CHARGES

@<TRIPOS>ATOM
      1 C1          0.3512    1.4643    1.3962 C.ar      1 <0>        -0.1116
      2 C2          1.4348    1.9230    2.1317 C.ar      1 <0>        -0.0750
      3 C3          2.5169    1.0870    2.3365 C.ar      1 <0>        -0.0698
      4 C4          2.5028   -0.1808    1.8104 C.ar      1 <0>        -0.1332
      5 C5          1.4170   -0.6820    1.0563 C.ar      1 <0>         0.0688
      6 C6          0.3280    0.2007    0.8671 C.ar      1 <0>        -0.0427
      7 N1          1.5521   -1.9476    0.6064 N.2       1 <0>        -0.4647
      8 C7          2.6193   -2.6728    0.8490 C.2       1 <0>         0.3617
      9 S1          3.6268   -1.5567    1.8153 S.3       1 <0>         0.0313
     10 N2          2.8944   -3.9730    0.4563 N.am      1 <0>        -0.3664
     11 C8          4.0193   -4.2446   -0.2347 C.2       1 <0>         0.5676
     12 O1          4.1651   -5.3335   -0.7550 O.2       1 <0>        -0.4815
     13 C9          5.0751   -3.2188   -0.3598 C.ar      1 <0>        -0.1642
     14 C10         4.7421   -1.8628   -0.3337 C.ar      1 <0>        -0.0516
     15 C11         5.7324   -0.9100   -0.4510 C.ar      1 <0>        -0.1140
     16 C12         7.0538   -1.2946   -0.5944 C.ar      1 <0>        -0.0447
     17 C13         7.3914   -2.6369   -0.6211 C.ar      1 <0>        -0.1082
     18 C14         6.4106   -3.6008   -0.4989 C.ar      1 <0>        -0.0136
     19 Br1         9.2005   -3.1512   -0.8181 Br        1 <0>        -0.0305
     20 N3          2.0033   -5.0052    0.7775 N.2       1 <0>        -0.2337
     21 C15         2.3154   -6.2375    0.5145 C.2       1 <0>         0.1208
     22 C16         1.3132   -7.3051    0.6882 C.ar      1 <0>        -0.0096
     23 C17        -0.0036   -6.9833    1.0264 C.ar      1 <0>        -0.0791
     24 C18        -0.9357   -7.9872    1.1873 C.ar      1 <0>        -0.0583
     25 C19        -0.5692   -9.3103    1.0145 C.ar      1 <0>        -0.0339
     26 C20         0.7332   -9.6364    0.6799 C.ar      1 <0>        -0.0574
     27 C21         1.6745   -8.6427    0.5097 C.ar      1 <0>        -0.0798
     28 N4         -1.5753  -10.3820    1.1889 N.pl3     1 <0>         0.0298
     29 O2         -2.7140  -10.1004    1.4815 O.2       1 <0>        -0.1535
     30 O3         -1.2583  -11.5390    1.0386 O.3       1 <0>        -0.1523
     31 H1         -0.4953    2.1169    1.2410 H         1 <0>         0.1413
     32 H2          1.4331    2.9229    2.5398 H         1 <0>         0.1455
     33 H3          3.3679    1.4294    2.9064 H         1 <0>         0.1401
     34 H4         -0.5311   -0.1250    0.2995 H         1 <0>         0.1392
     35 H5          3.7112   -1.5609   -0.2222 H         1 <0>         0.1288
     36 H6          5.4758    0.1389   -0.4312 H         1 <0>         0.1435
     37 H7          7.8252   -0.5443   -0.6862 H         1 <0>         0.1448
     38 H8          6.6753   -4.6477   -0.5154 H         1 <0>         0.1479
     39 H9          3.3091   -6.4808    0.1685 H         1 <0>         0.1830
     40 H10        -0.2908   -5.9511    1.1619 H         1 <0>         0.1566
     41 H11        -1.9539   -7.7400    1.4490 H         1 <0>         0.1592
     42 H12         1.0123  -10.6712    0.5469 H         1 <0>         0.1617
     43 H13         2.6896   -8.8984    0.2438 H         1 <0>         0.1579
@<TRIPOS>BOND
     1    1    6 ar
     2    1    2 ar
     3    1   31 1
     4    2    3 ar
     5    2   32 1
     6    3    4 ar
     7    3   33 1
     8    4    9 1
     9    4    5 ar
    10    5    6 ar
    11    5    7 1
    12    6   34 1
    13    7    8 2
    14    8    9 1
    15    8   10 1
    16   10   11 am
    17   10   20 1
    18   11   12 2
    19   11   13 1
    20   13   18 ar
    21   13   14 ar
    22   14   15 ar
    23   14   35 1
    24   15   16 ar
    25   15   36 1
    26   16   17 ar
    27   16   37 1
    28   17   18 ar
    29   17   19 1
    30   18   38 1
    31   20   21 2
    32   21   22 1
    33   21   39 1
    34   22   27 ar
    35   22   23 ar
    36   23   24 ar
    37   23   40 1
    38   24   25 ar
    39   24   41 1
    40   25   26 ar
    41   25   28 1
    42   26   27 ar
    43   26   42 1
    44   27   43 1
    45   28   29 2
    46   28   30 1
@<TRIPOS>MOLECULE
ZINC40058371
   62    66     0     0     0
SMALL
USER_CHARGES

@<TRIPOS>ATOM
      1 C1         -0.0187    1.5258    0.0104 C.3       1 <0>        -0.1507
      2 C2          0.0021   -0.0041    0.0020 C.3       1 <0>        -0.1239
      3 C3          0.7182   -0.4975   -1.2568 C.3       1 <0>         0.0568
      4 O1          0.7376   -1.9263   -1.2646 O.3       1 <0>        -0.3140
      5 C4          1.3413   -2.5294   -2.3224 C.ar      1 <0>         0.1482
      6 C5          1.9085   -1.7616   -3.3291 C.ar      1 <0>        -0.2033
      7 C6          2.5220   -2.3770   -4.4030 C.ar      1 <0>        -0.0297
      8 C7          2.5707   -3.7569   -4.4752 C.ar      1 <0>        -0.1358
      9 C8          2.0057   -4.5243   -3.4734 C.ar      1 <0>        -0.0588
     10 C9          1.3965   -3.9137   -2.3944 C.ar      1 <0>        -0.1501
     11 C10         3.2402   -4.4256   -5.6481 C.3       1 <0>         0.2404
     12 H1          3.2986   -3.7362   -6.4904 H         1 <0>         0.1349
     13 C11         4.6075   -4.8888   -5.2656 C.2       1 <0>        -0.2249
     14 C12         5.7861   -4.1465   -4.8075 C.2       1 <0>         0.4577
     15 O2          5.7542   -2.9683   -4.4989 O.2       1 <0>        -0.4184
     16 C13         7.0222   -4.9676   -4.7550 C.ar      1 <0>        -0.2213
     17 C14         8.2607   -4.3662   -4.5327 C.ar      1 <0>         0.0137
     18 C15         9.3903   -5.1352   -4.4922 C.ar      1 <0>        -0.1479
     19 C16         9.3071   -6.5088   -4.6725 C.ar      1 <0>        -0.0106
     20 C17         8.0927   -7.1193   -4.8910 C.ar      1 <0>        -0.1461
     21 C18         6.9252   -6.3571   -4.9342 C.ar      1 <0>         0.1517
     22 O3          5.7419   -6.9787   -5.1407 O.3       1 <0>        -0.1771
     23 C19         4.6434   -6.2469   -5.4130 C.2       1 <0>         0.0904
     24 C20         3.3254   -6.6945   -5.8931 C.2       1 <0>         0.5748
     25 O4          3.0260   -7.8483   -6.1293 O.2       1 <0>        -0.4456
     26 N1          2.4978   -5.6370   -6.0338 N.am      1 <0>        -0.4912
     27 C21         1.1785   -5.6828   -6.4649 C.2       1 <0>         0.2961
     28 N2          0.3020   -4.7023   -6.6355 N.2       1 <0>        -0.2869
     29 N3         -0.8721   -4.9226   -7.0401 N.2       1 <0>        -0.2504
     30 C22        -1.3023   -6.1374   -7.3185 C.2       1 <0>         0.0655
     31 S1          0.1753   -7.0819   -6.9573 S.3       1 <0>         0.0405
     32 C23        -2.6513   -6.5988   -7.8068 C.3       1 <0>         0.0034
     33 C24        -3.7236   -6.2081   -6.7877 C.3       1 <0>        -0.1439
     34 C25        -2.9606   -5.9375   -9.1514 C.3       1 <0>        -0.1439
     35 C26        10.5618   -7.3425   -4.6282 C.3       1 <0>        -0.1237
     36 C27         8.3534   -2.8748   -4.3373 C.3       1 <0>        -0.1320
     37 H2          1.0039    1.9031    0.0027 H         1 <0>         0.0582
     38 H3         -0.5459    1.8868   -0.8726 H         1 <0>         0.0584
     39 H4         -0.5289    1.8773    0.9072 H         1 <0>         0.0657
     40 H5          0.5293   -0.3651    0.8851 H         1 <0>         0.0737
     41 H6         -1.0205   -0.3814    0.0098 H         1 <0>         0.0739
     42 H7          0.1910   -0.1364   -2.1398 H         1 <0>         0.0645
     43 H8          1.7408   -0.1202   -1.2645 H         1 <0>         0.0642
     44 H9          1.8702   -0.6837   -3.2734 H         1 <0>         0.1334
     45 H10         2.9638   -1.7798   -5.1869 H         1 <0>         0.1317
     46 H11         2.0447   -5.6020   -3.5324 H         1 <0>         0.1158
     47 H12         0.9592   -4.5136   -1.6099 H         1 <0>         0.1327
     48 H13        10.3507   -4.6723   -4.3197 H         1 <0>         0.1402
     49 H14         8.0439   -8.1893   -5.0298 H         1 <0>         0.1479
     50 H15        -2.6428   -7.6820   -7.9281 H         1 <0>         0.1006
     51 H16        -3.7321   -5.1249   -6.6664 H         1 <0>         0.0696
     52 H17        -4.6993   -6.5419   -7.1409 H         1 <0>         0.0746
     53 H18        -3.5033   -6.6793   -5.8298 H         1 <0>         0.0597
     54 H19        -2.1967   -6.2158   -9.8774 H         1 <0>         0.0596
     55 H20        -3.9363   -6.2712   -9.5046 H         1 <0>         0.0746
     56 H21        -2.9690   -4.8543   -9.0301 H         1 <0>         0.0696
     57 H22        10.7449   -7.6693   -3.6045 H         1 <0>         0.0837
     58 H23        10.4419   -8.2140   -5.2718 H         1 <0>         0.0763
     59 H24        11.4060   -6.7473   -4.9761 H         1 <0>         0.0775
     60 H25         8.2546   -2.6404   -3.2774 H         1 <0>         0.0840
     61 H26         9.3183   -2.5202   -4.6995 H         1 <0>         0.0716
     62 H27         7.5542   -2.3851   -4.8937 H         1 <0>         0.0946
@<TRIPOS>BOND
     1    1    2 1
     2    1   37 1
     3    1   38 1
     4    1   39 1
     5    2    3 1
     6    2   40 1
     7    2   41 1
     8    3    4 1
     9    3   42 1
    10    3   43 1
    11    4    5 1
    12    5   10 ar
    13    5    6 ar
    14    6    7 ar
    15    6   44 1
    16    7    8 ar
    17    7   45 1
    18    8    9 ar
    19    8   11 1
    20    9   10 ar
    21    9   46 1
    22   10   47 1
    23   11   12 1
    24   11   26 1
    25   11   13 1
    26   13   23 2
    27   13   14 1
    28   14   15 2
    29   14   16 1
    30   16   21 ar
    31   16   17 ar
    32   17   18 ar
    33   17   36 1
    34   18   19 ar
    35   18   48 1
    36   19   20 ar
    37   19   35 1
    38   20   21 ar
    39   20   49 1
    40   21   22 1
    41   22   23 1
    42   23   24 1
    43   24   25 2
    44   24   26 am
    45   26   27 1
    46   27   31 1
    47   27   28 2
    48   28   29 1
    49   29   30 2
    50   30   31 1
    51   30   32 1
    52   32   33 1
    53   32   34 1
    54   32   50 1
    55   33   51 1
    56   33   52 1
    57   33   53 1
    58   34   54 1
    59   34   55 1
    60   34   56 1
    61   35   57 1
    62   35   58 1
    63   35   59 1
    64   36   60 1
    65   36   61 1
    66   36   62 1
@<TRIPOS>MOLECULE
ZINC04222446
   55    58     0     0     0
SMALL
USER_CHARGES
2-[2-furylcarbonylamino-hydroxy-(hydroxymethyl)-dimethyl-BLAHyl]acetic acid
@<TRIPOS>ATOM
      1 C1          2.0680    1.2655   -1.2141 C.3       1 <0>        -0.1675
      2 C2          1.4083    1.9223    0.0001 C.3       1 <0>        -0.0467
      3 C3         -0.0767    1.5465    0.0439 C.3       1 <0>        -0.1119
      4 C4         -0.2388    0.0377    0.2157 C.3       1 <0>        -0.1546
      5 C5          0.4134   -0.3808    1.5369 C.3       1 <0>         0.1198
      6 H1         -0.0477    0.1639    2.3608 H         1 <0>         0.0518
      7 C6          1.9033   -0.0504    1.4746 C.3       1 <0>        -0.0402
      8 C7          2.1073    1.4551    1.2789 C.3       1 <0>        -0.0562
      9 H2          1.7240    1.9981    2.1428 H         1 <0>         0.0855
     10 C8          3.6232    1.6946    1.1365 C.3       1 <0>        -0.0254
     11 C9          3.8492    3.0658    0.6054 C.2       1 <0>        -0.2523
     12 C10         2.9386    3.8943    0.0325 C.2       1 <0>         0.1290
     13 N1          3.3972    5.0790   -0.3654 N.2       1 <0>        -0.4657
     14 C11         4.6573    5.4308   -0.2140 C.2       1 <0>         0.2739
     15 S1          5.3383    4.0261    0.5509 S.3       1 <0>         0.1076
     16 N2          5.2813    6.6184   -0.5726 N.am      1 <0>        -0.5957
     17 C12         6.5961    6.7887   -0.3304 C.2       1 <0>         0.6057
     18 O1          7.2366    5.9016    0.2026 O.2       1 <0>        -0.4912
     19 C13         7.2548    8.0425   -0.7090 C.2       1 <0>        -0.0769
     20 C14         8.5736    8.3444   -0.5222 C.2       1 <0>        -0.1077
     21 C15         8.7671    9.6385   -1.0301 C.2       1 <0>        -0.2289
     22 C16         7.5733   10.0645   -1.4988 C.2       1 <0>         0.0062
     23 O2          6.6658    9.0980   -1.3084 O.3       1 <0>        -0.1592
     24 C17         1.4923    3.4496   -0.1214 C.3       1 <0>         0.0141
     25 H3          0.8861    3.9097    0.6589 H         1 <0>         0.0882
     26 C18         0.9702    3.8811   -1.4933 C.3       1 <0>        -0.1484
     27 C19         0.8673    5.3838   -1.5417 C.2       1 <0>         0.4660
     28 O3          1.1796    6.0421   -0.5778 O.co2     1 <0>        -0.6104
     29 C20         2.5736   -0.4868    2.7789 C.3       1 <0>        -0.1353
     30 C21         2.5406   -0.8039    0.3054 C.3       1 <0>         0.0569
     31 O4          2.5125   -2.2077    0.5715 O.3       1 <0>        -0.5539
     32 O5          0.2418   -1.7860    1.7321 O.3       1 <0>        -0.5432
     33 H4          2.1165    1.9827   -2.0335 H         1 <0>         0.0680
     34 H5          3.0762    0.9456   -0.9511 H         1 <0>         0.0633
     35 H6          1.4812    0.4004   -1.5228 H         1 <0>         0.0639
     36 H7         -0.5547    1.8570   -0.8851 H         1 <0>         0.0754
     37 H8         -0.5536    2.0579    0.8800 H         1 <0>         0.0656
     38 H9         -1.2987   -0.2161    0.2349 H         1 <0>         0.0631
     39 H10         0.2456   -0.4786   -0.6131 H         1 <0>         0.0759
     40 H11         4.1010    1.5977    2.1114 H         1 <0>         0.0782
     41 H12         4.0450    0.9626    0.4477 H         1 <0>         0.0868
     42 H13         4.7708    7.3254   -0.9975 H         1 <0>         0.4322
     43 H14         9.3224    7.7106   -0.0706 H         1 <0>         0.1638
     44 H15         9.6956   10.1900   -1.0441 H         1 <0>         0.1594
     45 H16         7.3834   11.0243   -1.9560 H         1 <0>         0.2133
     46 H17         1.6569    3.5388   -2.2675 H         1 <0>         0.0631
     47 H18        -0.0140    3.4439   -1.6614 H         1 <0>         0.0648
     48 H19         2.4435   -1.5608    2.9127 H         1 <0>         0.0727
     49 H20         3.6372   -0.2521    2.7371 H         1 <0>         0.0521
     50 H21         2.1176    0.0415    3.6162 H         1 <0>         0.0481
     51 H22         1.9831   -0.5960   -0.6078 H         1 <0>         0.0750
     52 H23         3.5734   -0.4779    0.1829 H         1 <0>         0.0452
     53 H24         2.9012   -2.7487   -0.1295 H         1 <0>         0.3644
     54 H25        -0.6824   -2.0679    1.7695 H         1 <0>         0.3649
     55 O6          0.4288    5.9910   -2.6556 O.co2     1 <0>        -0.7930
@<TRIPOS>BOND
     1    1    2 1
     2    1   33 1
     3    1   34 1
     4    1   35 1
     5    2    8 1
     6    2   24 1
     7    2    3 1
     8    3    4 1
     9    3   36 1
    10    3   37 1
    11    4    5 1
    12    4   38 1
    13    4   39 1
    14    5    6 1
    15    5    7 1
    16    5   32 1
    17    7    8 1
    18    7   29 1
    19    7   30 1
    20    8    9 1
    21    8   10 1
    22   10   11 1
    23   10   40 1
    24   10   41 1
    25   11   15 1
    26   11   12 2
    27   12   13 1
    28   12   24 1
    29   13   14 2
    30   14   15 1
    31   14   16 1
    32   16   17 am
    33   16   42 1
    34   17   18 2
    35   17   19 1
    36   19   23 1
    37   19   20 2
    38   20   21 1
    39   20   43 1
    40   21   22 2
    41   21   44 1
    42   22   23 1
    43   22   45 1
    44   24   25 1
    45   24   26 1
    46   26   27 1
    47   26   46 1
    48   26   47 1
    49   27   28 2
    50   27   55 1
    51   29   48 1
    52   29   49 1
    53   29   50 1
    54   30   31 1
    55   30   51 1
    56   30   52 1
    57   31   53 1
    58   32   54 1
@<TRIPOS>MOLECULE
ZINC35794334
   33    33     0     0     0
SMALL
USER_CHARGES

@<TRIPOS>ATOM
      1 C1         -2.2276    0.6143    5.5890 C.3       1 <0>        -0.1671
      2 C2         -2.6375   -0.0599    4.2781 C.3       1 <0>         0.1354
      3 H1         -2.6376   -1.1418    4.4105 H         1 <0>         0.1094
      4 C3         -4.0191    0.3986    3.8881 C.2       1 <0>         0.5112
      5 O1         -4.1926    0.9720    2.8336 O.2       1 <0>        -0.5147
      6 N1         -5.0619    0.1713    4.7111 N.am      1 <0>        -0.8541
      7 N2         -1.6869    0.3031    3.2242 N.pl3     1 <0>        -1.0905
      8 S1         -0.4194   -0.7022    2.8703 S.o2      1 <0>         2.7091
      9 O2          0.2960   -0.0938    1.8038 O.2       1 <0>        -0.9476
     10 O3          0.1945   -1.0331    4.1084 O.2       1 <0>        -0.9618
     11 C4         -1.1018   -2.1958    2.2315 C.ar      1 <0>        -0.7168
     12 C5         -0.9371   -3.3797    2.9227 C.ar      1 <0>        -0.0123
     13 C6         -1.4704   -4.5607    2.4292 C.ar      1 <0>        -0.0782
     14 C7         -2.1707   -4.5649    1.2418 C.ar      1 <0>        -0.0095
     15 C8         -2.3449   -3.3728    0.5315 C.ar      1 <0>        -0.1642
     16 C9         -1.8082   -2.1793    1.0382 C.ar      1 <0>         0.2419
     17 O4         -1.9751   -1.0159    0.3615 O.3       1 <0>        -0.3149
     18 C10        -1.0337   -0.7268   -0.6739 C.3       1 <0>         0.0491
     19 C11        -3.0913   -3.3690   -0.7368 C.2       1 <0>         0.5224
     20 O5         -3.5617   -4.4108   -1.1729 O.co2     1 <0>        -0.6828
     21 O6         -3.2415   -2.3241   -1.3551 O.co2     1 <0>        -0.6550
     22 Cl1        -1.2546   -6.0408    3.3103 Cl        1 <0>        -0.0749
     23 H2         -2.2275    1.6962    5.4566 H         1 <0>         0.0690
     24 H3         -2.9349    0.3442    6.3731 H         1 <0>         0.0724
     25 H4         -1.2283    0.2827    5.8711 H         1 <0>         0.0855
     26 H5         -4.9232   -0.2873    5.5545 H         1 <0>         0.4008
     27 H6         -5.9512    0.4664    4.4601 H         1 <0>         0.4042
     28 H7         -1.7999    1.1322    2.7336 H         1 <0>         0.4284
     29 H8         -0.3893   -3.3860    3.8534 H         1 <0>         0.1505
     30 H9         -2.5838   -5.4870    0.8606 H         1 <0>         0.1494
     31 H10        -1.1446   -1.4531   -1.4790 H         1 <0>         0.0605
     32 H11        -1.2160    0.2756   -1.0612 H         1 <0>         0.0905
     33 H12        -0.0223   -0.7824   -0.2712 H         1 <0>         0.0548
@<TRIPOS>BOND
     1    1    2 1
     2    1   23 1
     3    1   24 1
     4    1   25 1
     5    2    3 1
     6    2    4 1
     7    2    7 1
     8    4    5 2
     9    4    6 am
    10    6   26 1
    11    6   27 1
    12    7    8 1
    13    7   28 1
    14    8    9 2
    15    8   10 2
    16    8   11 1
    17   11   16 ar
    18   11   12 ar
    19   12   13 ar
    20   12   29 1
    21   13   14 ar
    22   13   22 1
    23   14   15 ar
    24   14   30 1
    25   15   16 ar
    26   15   19 1
    27   16   17 1
    28   17   18 1
    29   18   31 1
    30   18   32 1
    31   18   33 1
    32   19   20 2
    33   19   21 1
@<TRIPOS>MOLECULE
ZINC44760538
   34    35     0     0     0
SMALL
USER_CHARGES

@<TRIPOS>ATOM
      1 C1         -0.3580    1.2730    0.2079 C.3       1 <0>         0.0608
      2 N1         -0.2497   -0.1861    0.1336 N.pl3     1 <0>        -0.4005
      3 C2         -0.2841   -0.9245   -1.0025 C.2       1 <0>         0.1550
      4 C3         -0.1547   -2.2333   -0.6784 C.2       1 <0>        -0.7473
      5 C4         -0.0346   -2.3211    0.7120 C.2       1 <0>        -0.0418
      6 C5         -0.0901   -1.0349    1.2054 C.2       1 <0>        -0.0669
      7 C6          0.0008   -0.6427    2.6159 C.2       1 <0>         0.6005
      8 O1         -0.1528    0.5216    2.9348 O.2       1 <0>        -0.5532
      9 N2          0.2546   -1.5718    3.5587 N.am      1 <0>        -0.8408
     10 S1         -0.1403   -3.5852   -1.8083 S.o2      1 <0>         2.7173
     11 O2         -0.5446   -4.7326   -1.0740 O.2       1 <0>        -0.9636
     12 O3         -0.8241   -3.1472   -2.9744 O.2       1 <0>        -0.9617
     13 N3          1.4356   -3.8372   -2.2503 N.pl3     1 <0>        -1.0242
     14 C7          2.3830   -4.1608   -1.2885 C.ar      1 <0>         0.1844
     15 C8          2.0362   -4.9648   -0.2096 C.ar      1 <0>        -0.1703
     16 C9          2.9783   -5.2852    0.7455 C.ar      1 <0>        -0.1282
     17 C10         4.2784   -4.8096    0.6386 C.ar      1 <0>         0.0557
     18 C11         4.6422   -4.0110   -0.4245 C.ar      1 <0>        -0.0951
     19 C12         3.6986   -3.6818   -1.4044 C.ar      1 <0>        -0.1299
     20 C13         4.0803   -2.8356   -2.5446 C.2       1 <0>         0.5265
     21 O4          5.2272   -2.4205   -2.6415 O.co2     1 <0>        -0.6767
     22 O5          3.2509   -2.5464   -3.3965 O.co2     1 <0>        -0.6766
     23 F1          5.1913   -5.1306    1.5813 F         1 <0>        -0.1499
     24 H1          0.6399    1.7106    0.2339 H         1 <0>         0.0835
     25 H2         -0.8941    1.6425   -0.6663 H         1 <0>         0.0903
     26 H3         -0.9005    1.5515    1.1113 H         1 <0>         0.1038
     27 H4         -0.3964   -0.5332   -2.0028 H         1 <0>         0.1916
     28 H5          0.0832   -3.2257    1.2901 H         1 <0>         0.1596
     29 H6          0.4491   -2.4859    3.2988 H         1 <0>         0.4068
     30 H7          0.2426   -1.3264    4.4970 H         1 <0>         0.4092
     31 H8          1.6967   -3.7586   -3.1812 H         1 <0>         0.4419
     32 H9          1.0273   -5.3392   -0.1185 H         1 <0>         0.1652
     33 H10         2.7028   -5.9099    1.5823 H         1 <0>         0.1331
     34 H11         5.6546   -3.6432   -0.5032 H         1 <0>         0.1413
@<TRIPOS>BOND
     1    1    2 1
     2    1   24 1
     3    1   25 1
     4    1   26 1
     5    2    6 1
     6    2    3 1
     7    3    4 2
     8    3   27 1
     9    4    5 1
    10    4   10 1
    11    5    6 2
    12    5   28 1
    13    6    7 1
    14    7    8 2
    15    7    9 am
    16    9   29 1
    17    9   30 1
    18   10   11 2
    19   10   12 2
    20   10   13 1
    21   13   14 1
    22   13   31 1
    23   14   19 ar
    24   14   15 ar
    25   15   16 ar
    26   15   32 1
    27   16   17 ar
    28   16   33 1
    29   17   18 ar
    30   17   23 1
    31   18   19 ar
    32   18   34 1
    33   19   20 1
    34   20   21 2
    35   20   22 1
@<TRIPOS>MOLECULE
ZINC56810083
   38    40     0     0     0
SMALL
USER_CHARGES

@<TRIPOS>ATOM
      1 C1         -0.0167    1.3798    0.0096 C.ar      1 <0>        -0.0824
      2 C2          1.1937    2.0588    0.0017 C.ar      1 <0>        -0.1811
      3 C3          2.3744    1.3397   -0.0134 C.ar      1 <0>         0.0982
      4 N1          2.3640    0.0221   -0.0204 N.ar      1 <0>        -0.4403
      5 C4          1.2289   -0.6644   -0.0132 C.ar      1 <0>         0.2295
      6 C5          0.0021   -0.0041    0.0020 C.ar      1 <0>        -0.1461
      7 C6          1.2661   -2.1475   -0.0221 C.2       1 <0>         0.2471
      8 N2          2.3758   -2.8962   -0.0371 N.2       1 <0>        -0.5176
      9 H1          0.1588   -5.0678   -0.0262 H         1 <0>         0.4283
     10 C7          2.0498   -4.1736   -0.0404 C.2       1 <0>         0.5136
     11 N3          0.6915   -4.2572   -0.0272 N.pl3     1 <0>        -0.5074
     12 N4          0.2145   -2.9365   -0.0106 N.2       1 <0>        -0.3461
     13 N5          2.9189   -5.2242   -0.0551 N.2       1 <0>        -0.6366
     14 C8          4.2028   -5.0070   -0.0669 C.2       1 <0>         0.4217
     15 O1          4.6723   -3.7445   -0.0646 O.3       1 <0>        -0.6548
     16 C9          5.1633   -6.1681   -0.0830 C.3       1 <0>         0.0998
     17 O2          4.4289   -7.3939   -0.0824 O.3       1 <0>        -0.2757
     18 C10         5.1505   -8.5456   -0.0960 C.ar      1 <0>         0.1361
     19 C11         6.5380   -8.4950   -0.1041 C.ar      1 <0>        -0.1903
     20 C12         7.2772   -9.6632   -0.1180 C.ar      1 <0>        -0.0861
     21 C13         6.6406  -10.8876   -0.1245 C.ar      1 <0>        -0.1388
     22 C14         5.2463  -10.9485   -0.1165 C.ar      1 <0>        -0.1059
     23 C15         4.5016   -9.7687   -0.0962 C.ar      1 <0>        -0.0939
     24 C16         4.5608  -12.2585   -0.1239 C.2       1 <0>         0.5657
     25 O3          3.3463  -12.3090   -0.1169 O.2       1 <0>        -0.5356
     26 N6          5.2825  -13.3967   -0.1384 N.am      1 <0>        -0.8525
     27 H2         -0.9522    1.9192    0.0259 H         1 <0>         0.1336
     28 H3          1.2131    3.1386    0.0070 H         1 <0>         0.1316
     29 H4          3.3180    1.8650   -0.0200 H         1 <0>         0.1556
     30 H5         -0.9213   -0.5643    0.0082 H         1 <0>         0.1409
     31 H6          5.7818   -6.1156   -0.9790 H         1 <0>         0.0769
     32 H7          5.7998   -6.1255    0.8008 H         1 <0>         0.0769
     33 H8          7.0416   -7.5397   -0.0998 H         1 <0>         0.1350
     34 H9          8.3562   -9.6174   -0.1242 H         1 <0>         0.1286
     35 H10         7.2211  -11.7983   -0.1361 H         1 <0>         0.1226
     36 H11         3.4225   -9.8094   -0.0852 H         1 <0>         0.1452
     37 H12         6.2516  -13.3564   -0.1440 H         1 <0>         0.4007
     38 H13         4.8328  -14.2561   -0.1432 H         1 <0>         0.4034
@<TRIPOS>BOND
     1    1    6 ar
     2    1    2 ar
     3    1   27 1
     4    2    3 ar
     5    2   28 1
     6    3    4 ar
     7    3   29 1
     8    4    5 ar
     9    5    6 ar
    10    5    7 1
    11    6   30 1
    12    7    8 1
    13    7   12 2
    14    8   10 2
    15    9   11 1
    16   10   13 1
    17   10   11 1
    18   11   12 1
    19   13   14 2
    20   14   15 1
    21   14   16 1
    22   16   17 1
    23   16   31 1
    24   16   32 1
    25   17   18 1
    26   18   23 ar
    27   18   19 ar
    28   19   20 ar
    29   19   33 1
    30   20   21 ar
    31   20   34 1
    32   21   22 ar
    33   21   35 1
    34   22   23 ar
    35   22   24 1
    36   23   36 1
    37   24   25 2
    38   24   26 am
    39   26   37 1
    40   26   38 1
@<TRIPOS>MOLECULE
ZINC62677871
   37    38     0     0     0
SMALL
USER_CHARGES

@<TRIPOS>ATOM
      1 C1         -0.0184    1.5028    0.0103 C.3       1 <0>        -0.0514
      2 C2          0.0021   -0.0041    0.0020 C.2       1 <0>         0.0405
      3 C3         -1.0918   -0.8155    0.0026 C.2       1 <0>        -0.1600
      4 C4         -0.5678   -2.1880   -0.0081 C.2       1 <0>        -0.1677
      5 C5          0.7697   -2.0729   -0.0141 C.2       1 <0>        -0.0702
      6 O1          1.0979   -0.7717   -0.0130 O.3       1 <0>        -0.1899
      7 C6         -2.5097   -0.4018    0.0129 C.2       1 <0>         0.5518
      8 O2         -3.4870   -1.3367    0.0120 O.3       1 <0>        -0.7130
      9 N1         -2.8186    0.8627    0.0227 N.2       1 <0>        -1.0581
     10 S1         -4.4083    1.3265    0.0341 S.o2      1 <0>         2.6457
     11 O3         -4.9591    0.9195   -1.2110 O.2       1 <0>        -1.0044
     12 O4         -4.9458    0.9035    1.2797 O.2       1 <0>        -1.0044
     13 C7         -4.4369    3.0882    0.0456 C.ar      1 <0>        -0.6175
     14 C8         -4.4360    3.7717    1.2472 C.ar      1 <0>        -0.0241
     15 C9         -4.4584    5.1538    1.2563 C.ar      1 <0>        -0.1243
     16 C10        -4.4812    5.8525    0.0637 C.ar      1 <0>        -0.0780
     17 C11        -4.4812    5.1691   -1.1379 C.ar      1 <0>        -0.1243
     18 C12        -4.4544    3.7870   -1.1470 C.ar      1 <0>        -0.0242
     19 C13        -4.5066    7.3593    0.0736 C.3       1 <0>         0.1787
     20 N2         -3.1339    7.8709    0.0640 N.am      1 <0>        -0.7396
     21 C14        -2.9100    9.1999    0.0704 C.2       1 <0>         0.7055
     22 O5         -3.8473    9.9743    0.0841 O.2       1 <0>        -0.5976
     23 N3         -1.6472    9.6706    0.0616 N.am      1 <0>        -0.8683
     24 H1          1.0042    1.8801    0.0026 H         1 <0>         0.0557
     25 H2         -0.5455    1.8639   -0.8728 H         1 <0>         0.0926
     26 H3         -0.5286    1.8543    0.9071 H         1 <0>         0.0924
     27 H4         -1.1416   -3.1030   -0.0102 H         1 <0>         0.1515
     28 H5          1.4694   -2.8956   -0.0220 H         1 <0>         0.1990
     29 H6         -4.4181    3.2258    2.1789 H         1 <0>         0.1396
     30 H7         -4.4584    5.6878    2.1950 H         1 <0>         0.1286
     31 H8         -4.4994    5.7150   -2.0696 H         1 <0>         0.1286
     32 H9         -4.4507    3.2531   -2.0858 H         1 <0>         0.1397
     33 H10        -5.0348    7.7195   -0.8093 H         1 <0>         0.0775
     34 H11        -5.0182    7.7082    0.9706 H         1 <0>         0.0775
     35 H12        -2.3861    7.2532    0.0531 H         1 <0>         0.4005
     36 H13        -0.8994    9.0529    0.0507 H         1 <0>         0.3978
     37 H14        -1.4860   10.6271    0.0662 H         1 <0>         0.4140
@<TRIPOS>BOND
     1    1    2 1
     2    1   24 1
     3    1   25 1
     4    1   26 1
     5    2    6 1
     6    2    3 2
     7    3    4 1
     8    3    7 1
     9    4    5 2
    10    4   27 1
    11    5    6 1
    12    5   28 1
    13    7    8 1
    14    7    9 2
    15    9   10 1
    16   10   11 2
    17   10   12 2
    18   10   13 1
    19   13   18 ar
    20   13   14 ar
    21   14   15 ar
    22   14   29 1
    23   15   16 ar
    24   15   30 1
    25   16   17 ar
    26   16   19 1
    27   17   18 ar
    28   17   31 1
    29   18   32 1
    30   19   20 1
    31   19   33 1
    32   19   34 1
    33   20   21 am
    34   20   35 1
    35   21   22 2
    36   21   23 am
    37   23   36 1
    38   23   37 1
@<TRIPOS>MOLECULE
ZINC04769474
   48    50     0     0     0
SMALL
USER_CHARGES
6-hydroxy-4-(4-hydroxy-3-methoxy-phenyl)-3-(hydroxymethyl)-7-methoxy-tetralin-2-carboxylic acid
@<TRIPOS>ATOM
      1 C1          1.9370    7.6368    2.9263 C.3       1 <0>         0.0224
      2 O1          1.9205    8.2429    1.6323 O.3       1 <0>        -0.3093
      3 C2          2.0621    7.4164    0.5616 C.ar      1 <0>         0.1051
      4 C3          2.2088    6.0518    0.7524 C.ar      1 <0>        -0.1752
      5 C4          2.3578    5.2137   -0.3369 C.ar      1 <0>        -0.0312
      6 C5          2.3505    5.7327   -1.6183 C.ar      1 <0>        -0.1376
      7 C6          2.1998    7.0926   -1.8158 C.ar      1 <0>        -0.1067
      8 C7          2.0552    7.9388   -0.7281 C.ar      1 <0>         0.0641
      9 O2          1.9073    9.2769   -0.9207 O.3       1 <0>        -0.4894
     10 C8          2.5224    3.7305   -0.1273 C.3       1 <0>        -0.0010
     11 H1          2.9974    3.2940   -1.0060 H         1 <0>         0.0894
     12 C9          3.3948    3.4938    1.0779 C.ar      1 <0>        -0.0899
     13 C10         4.7653    3.6662    0.9261 C.ar      1 <0>        -0.0972
     14 C11         5.6213    3.4708    1.9937 C.ar      1 <0>         0.0627
     15 C12         5.1039    3.0983    3.2311 C.ar      1 <0>         0.1024
     16 C13         3.7403    2.9254    3.3772 C.ar      1 <0>        -0.2004
     17 C14         2.8835    3.1205    2.3007 C.ar      1 <0>        -0.0257
     18 C15         1.4108    2.9017    2.5307 C.3       1 <0>        -0.0653
     19 C16         0.5907    3.5573    1.4216 C.3       1 <0>        -0.1240
     20 H2          0.6691    4.6417    1.4991 H         1 <0>         0.0731
     21 C17         1.1482    3.0944    0.0704 C.3       1 <0>        -0.0584
     22 H3          0.4793    3.4093   -0.7306 H         1 <0>         0.0880
     23 C18         1.2799    1.5701    0.0622 C.3       1 <0>         0.0824
     24 O3         -0.0194    0.9793    0.1305 O.3       1 <0>        -0.5032
     25 C19        -0.8527    3.1420    1.5443 C.2       1 <0>         0.4640
     26 O4         -1.3859    2.5368    0.6446 O.co2     1 <0>        -0.5907
     27 O5          5.9351    2.9051    4.2900 O.3       1 <0>        -0.3111
     28 C20         5.3313    2.5236    5.5276 C.3       1 <0>         0.0249
     29 O6          6.9613    3.6411    1.8359 O.3       1 <0>        -0.4868
     30 H4          1.1211    6.9179    3.0013 H         1 <0>         0.0627
     31 H5          2.8875    7.1244    3.0755 H         1 <0>         0.0535
     32 H6          1.8151    8.4057    3.6893 H         1 <0>         0.0995
     33 H7          2.2107    5.6434    1.7522 H         1 <0>         0.1372
     34 H8          2.4632    5.0742   -2.4669 H         1 <0>         0.1283
     35 H9          2.1945    7.4954   -2.8179 H         1 <0>         0.1333
     36 H10         0.9879    9.5616   -1.0134 H         1 <0>         0.3831
     37 H11         5.1652    3.9554   -0.0346 H         1 <0>         0.1326
     38 H12         3.3371    2.6365    4.3366 H         1 <0>         0.1318
     39 H13         1.2044    1.8315    2.5456 H         1 <0>         0.0796
     40 H14         1.1285    3.3355    3.4900 H         1 <0>         0.0787
     41 H15         1.8694    1.2518    0.9220 H         1 <0>         0.0351
     42 H16         1.7754    1.2531   -0.8554 H         1 <0>         0.0258
     43 H17        -0.0124    0.0123    0.1294 H         1 <0>         0.3408
     44 H18         6.1040    2.4025    6.2868 H         1 <0>         0.0979
     45 H19         4.6298    3.2959    5.8430 H         1 <0>         0.0560
     46 H20         4.7995    1.5811    5.3971 H         1 <0>         0.0553
     47 H21         7.4309    2.8392    1.5684 H         1 <0>         0.3806
     48 O7         -1.5461    3.4444    2.6531 O.co2     1 <0>        -0.7868
@<TRIPOS>BOND
     1    1    2 1
     2    1   30 1
     3    1   31 1
     4    1   32 1
     5    2    3 1
     6    3    8 ar
     7    3    4 ar
     8    4    5 ar
     9    4   33 1
    10    5    6 ar
    11    5   10 1
    12    6    7 ar
    13    6   34 1
    14    7    8 ar
    15    7   35 1
    16    8    9 1
    17    9   36 1
    18   10   11 1
    19   10   21 1
    20   10   12 1
    21   12   17 ar
    22   12   13 ar
    23   13   14 ar
    24   13   37 1
    25   14   15 ar
    26   14   29 1
    27   15   16 ar
    28   15   27 1
    29   16   17 ar
    30   16   38 1
    31   17   18 1
    32   18   19 1
    33   18   39 1
    34   18   40 1
    35   19   20 1
    36   19   21 1
    37   19   25 1
    38   21   22 1
    39   21   23 1
    40   23   24 1
    41   23   41 1
    42   23   42 1
    43   24   43 1
    44   25   26 2
    45   25   48 1
    46   27   28 1
    47   28   44 1
    48   28   45 1
    49   28   46 1
    50   29   47 1
@<TRIPOS>MOLECULE
ZINC08837743
   47    49     0     0     0
SMALL
USER_CHARGES
N'-[(E)-[1-(4-ethoxyphenyl)-4,6-dioxo-2-thioxo-hexahydropyrimidin-5-ylidene]methyl]-2-hydroxy-benzohydrazide
@<TRIPOS>ATOM
      1 C1        -11.8322    3.8060   -1.7326 C.3       1 <0>        -0.1523
      2 C2        -10.5226    3.0173   -1.7938 C.3       1 <0>         0.0517
      3 O1         -9.7027    3.3680   -0.6772 O.3       1 <0>        -0.3180
      4 C3         -8.4945    2.7520   -0.5810 C.ar      1 <0>         0.1260
      5 C4         -7.6486    3.0462    0.4785 C.ar      1 <0>        -0.1416
      6 C5         -6.4214    2.4209    0.5767 C.ar      1 <0>        -0.0502
      7 C6         -6.0341    1.4976   -0.3851 C.ar      1 <0>         0.1334
      8 C7         -6.8786    1.2078   -1.4482 C.ar      1 <0>        -0.0524
      9 C8         -8.1082    1.8291   -1.5421 C.ar      1 <0>        -0.1978
     10 N1         -4.7877    0.8621   -0.2858 N.am      1 <0>        -0.5060
     11 C9         -3.7184    1.4090   -0.9000 C.2       1 <0>         0.5814
     12 O2         -3.8231    2.4413   -1.5354 O.2       1 <0>        -0.5408
     13 C10        -2.4212    0.7187   -0.7860 C.2       1 <0>        -0.4389
     14 C11        -1.2835    1.2163   -1.3930 C.2       1 <0>         0.2973
     15 N2         -0.0870    0.6409   -1.1574 N.pl3     1 <0>        -0.4673
     16 N3          1.0462    1.0670   -1.8625 N.am      1 <0>        -0.5512
     17 C12         2.2411    0.4880   -1.6309 C.2       1 <0>         0.5606
     18 O3          2.3355   -0.4041   -0.8101 O.2       1 <0>        -0.5045
     19 C13         3.4344    0.9367   -2.3734 C.ar      1 <0>        -0.1734
     20 C14         3.3304    1.9614   -3.3174 C.ar      1 <0>        -0.0455
     21 C15         4.4487    2.3758   -4.0075 C.ar      1 <0>        -0.1722
     22 C16         5.6773    1.7811   -3.7695 C.ar      1 <0>        -0.0504
     23 C17         5.7942    0.7679   -2.8391 C.ar      1 <0>        -0.2252
     24 C18         4.6798    0.3414   -2.1317 C.ar      1 <0>         0.2206
     25 O4          4.7943   -0.6503   -1.2132 O.3       1 <0>        -0.4709
     26 C19        -2.3890   -0.5224    0.0087 C.2       1 <0>         0.5485
     27 O5         -1.3540   -1.1456    0.1524 O.3       1 <0>        -0.5510
     28 N4         -3.5381   -0.9483    0.5726 N.2       1 <0>        -0.6256
     29 C20        -4.6852   -0.2714    0.4222 C.2       1 <0>         0.5504
     30 S1         -6.0945   -0.8877    1.1740 S.2       1 <0>        -0.7027
     31 H1        -12.4633    3.5360   -2.5921 H         1 <0>         0.0755
     32 H2        -11.6130    4.8835   -1.7627 H         1 <0>         0.0645
     33 H3        -12.3618    3.5655   -0.7989 H         1 <0>         0.0658
     34 H4        -10.7418    1.9398   -1.7637 H         1 <0>         0.0626
     35 H5         -9.9930    3.2578   -2.7275 H         1 <0>         0.0603
     36 H6         -7.9501    3.7642    1.2268 H         1 <0>         0.1306
     37 H7         -5.7631    2.6497    1.4017 H         1 <0>         0.1254
     38 H8         -6.5758    0.4932   -2.1993 H         1 <0>         0.1204
     39 H9         -8.7671    1.6005   -2.3667 H         1 <0>         0.1267
     40 H10        -1.3541    2.0817   -2.0683 H         1 <0>         0.1599
     41 H11        -0.0006   -0.1630   -0.4116 H         1 <0>         0.4797
     42 H12         0.9607    1.8740   -2.6051 H         1 <0>         0.4378
     43 H13         2.3749    2.4282   -3.5057 H         1 <0>         0.1312
     44 H14         4.3673    3.1680   -4.7370 H         1 <0>         0.1313
     45 H15         6.5486    2.1125   -4.3147 H         1 <0>         0.1295
     46 H16         6.7553    0.3095   -2.6589 H         1 <0>         0.1348
     47 H17         5.7731   -1.1158   -1.0255 H         1 <0>         0.4316
@<TRIPOS>BOND
     1    1    2 1
     2    1   31 1
     3    1   32 1
     4    1   33 1
     5    2    3 1
     6    2   34 1
     7    2   35 1
     8    3    4 1
     9    4    9 ar
    10    4    5 ar
    11    5    6 ar
    12    5   36 1
    13    6    7 ar
    14    6   37 1
    15    7    8 ar
    16    7   10 1
    17    8    9 ar
    18    8   38 1
    19    9   39 1
    20   10   29 1
    21   10   11 am
    22   11   12 2
    23   11   13 1
    24   13   14 2
    25   13   26 1
    26   14   15 1
    27   14   40 1
    28   15   16 1
    29   15   41 1
    30   16   17 am
    31   16   42 1
    32   17   18 2
    33   17   19 1
    34   19   24 ar
    35   19   20 ar
    36   20   21 ar
    37   20   43 1
    38   21   22 ar
    39   21   44 1
    40   22   23 ar
    41   22   45 1
    42   23   24 ar
    43   23   46 1
    44   24   25 1
    45   25   47 1
    46   26   27 1
    47   26   28 2
    48   28   29 1
    49   29   30 2
@<TRIPOS>MOLECULE
ZINC39558204
   46    47     0     0     0
SMALL
USER_CHARGES

@<TRIPOS>ATOM
      1 C1         -0.0461    1.5242    0.0253 C.3       1 <0>        -0.1507
      2 C2         -0.0289   -0.0057    0.0192 C.3       1 <0>        -0.1233
      3 C3          0.7187   -0.5122    1.2543 C.3       1 <0>         0.0578
      4 O1          0.7348   -1.9411    1.2487 O.3       1 <0>        -0.3180
      5 C4          1.3649   -2.5555    2.2853 C.ar      1 <0>         0.0897
      6 C5          1.9497   -1.7974    3.2888 C.ar      1 <0>        -0.1671
      7 C6          2.5897   -2.4215    4.3418 C.ar      1 <0>        -0.1074
      8 C7          2.6472   -3.8063    4.3959 C.ar      1 <0>         0.0985
      9 C8          2.0615   -4.5643    3.3929 C.ar      1 <0>        -0.1712
     10 C9          1.4177   -3.9403    2.3421 C.ar      1 <0>        -0.1112
     11 O2          3.2780   -4.4206    5.4321 O.3       1 <0>        -0.2862
     12 C10         3.2988   -5.8495    5.4236 C.3       1 <0>         0.0445
     13 C11         4.0354   -6.3483    6.6400 C.2       1 <0>         0.5044
     14 O3          4.4971   -5.5581    7.4359 O.2       1 <0>        -0.4846
     15 N1          4.1811   -7.6727    6.8436 N.am      1 <0>        -0.6642
     16 C12         4.9467   -8.1351    7.9196 C.ar      1 <0>         0.1662
     17 C13         5.7072   -9.2903    7.7863 C.ar      1 <0>        -0.2458
     18 C14         6.4630   -9.7480    8.8482 C.ar      1 <0>        -0.0509
     19 C15         6.4659   -9.0589   10.0458 C.ar      1 <0>        -0.2735
     20 C16         5.7080   -7.9028   10.1855 C.ar      1 <0>         0.2982
     21 C17         4.9517   -7.4376    9.1186 C.ar      1 <0>        -0.1753
     22 N2          5.7114   -7.2066   11.3963 N.2       1 <0>        -1.1052
     23 S1          6.6190   -7.7590   12.6665 S.o2      1 <0>         2.7159
     24 O4          6.0488   -8.9982   13.0646 O.2       1 <0>        -1.0587
     25 O5          7.9800   -7.6369   12.2766 O.2       1 <0>        -1.0575
     26 N3          6.3912   -6.7071   13.9251 N.pl3     1 <0>        -1.2510
     27 H1          0.9773    1.8991    0.0097 H         1 <0>         0.0578
     28 H2         -0.5787    1.8851   -0.8546 H         1 <0>         0.0638
     29 H3         -0.5491    1.8784    0.9251 H         1 <0>         0.0579
     30 H4         -1.0523   -0.3806    0.0349 H         1 <0>         0.0729
     31 H5          0.4741   -0.3598   -0.8806 H         1 <0>         0.0728
     32 H6          1.7421   -0.1373    1.2387 H         1 <0>         0.0613
     33 H7          0.2157   -0.1580    2.1541 H         1 <0>         0.0614
     34 H8          1.9050   -0.7192    3.2467 H         1 <0>         0.1336
     35 H9          3.0458   -1.8312    5.1229 H         1 <0>         0.1372
     36 H10         2.1065   -5.6426    3.4348 H         1 <0>         0.1361
     37 H11         0.9585   -4.5306    1.5630 H         1 <0>         0.1332
     38 H12         2.2767   -6.2278    5.4373 H         1 <0>         0.0924
     39 H13         3.8041   -6.2002    4.5237 H         1 <0>         0.0927
     40 H14         3.7552   -8.3052    6.2441 H         1 <0>         0.4039
     41 H15         5.7071   -9.8313    6.8515 H         1 <0>         0.1048
     42 H16         7.0527  -10.6465    8.7421 H         1 <0>         0.1067
     43 H17         7.0576   -9.4194   10.8742 H         1 <0>         0.0976
     44 H18         4.3651   -6.5367    9.2231 H         1 <0>         0.1300
     45 H19         5.8067   -5.9406   13.8168 H         1 <0>         0.4090
     46 H20         6.8422   -6.8575   14.7706 H         1 <0>         0.4010
@<TRIPOS>BOND
     1    1    2 1
     2    1   27 1
     3    1   28 1
     4    1   29 1
     5    2    3 1
     6    2   30 1
     7    2   31 1
     8    3    4 1
     9    3   32 1
    10    3   33 1
    11    4    5 1
    12    5   10 ar
    13    5    6 ar
    14    6    7 ar
    15    6   34 1
    16    7    8 ar
    17    7   35 1
    18    8    9 ar
    19    8   11 1
    20    9   10 ar
    21    9   36 1
    22   10   37 1
    23   11   12 1
    24   12   13 1
    25   12   38 1
    26   12   39 1
    27   13   14 2
    28   13   15 am
    29   15   16 1
    30   15   40 1
    31   16   21 ar
    32   16   17 ar
    33   17   18 ar
    34   17   41 1
    35   18   19 ar
    36   18   42 1
    37   19   20 ar
    38   19   43 1
    39   20   21 ar
    40   20   22 1
    41   21   44 1
    42   22   23 1
    43   23   24 2
    44   23   25 2
    45   23   26 1
    46   26   45 1
    47   26   46 1
@<TRIPOS>MOLECULE
ZINC44174039
   51    54     0     0     0
SMALL
USER_CHARGES

@<TRIPOS>ATOM
      1 C1         -0.0187    1.5258    0.0104 C.3       1 <0>        -0.1981
      2 C2          0.0021   -0.0041    0.0020 C.3       1 <0>         0.1197
      3 H1          0.5123   -0.3556   -0.8948 H         1 <0>         0.0945
      4 C3          0.7421   -0.5109    1.2415 C.3       1 <0>        -0.0387
      5 C4          0.9333   -2.0150    1.1605 C.3       1 <0>        -0.1545
      6 H2          1.0389   -2.4703    2.1452 H         1 <0>         0.1197
      7 C5          2.2675   -2.0325    0.3201 C.3       1 <0>        -0.1759
      8 H3          2.0059   -1.4867   -0.5865 H         1 <0>         0.0794
      9 C6          3.0950   -1.0514    1.0417 C.3       1 <0>         0.1239
     10 H4          3.9233   -0.7110    0.4203 H         1 <0>         0.1459
     11 N1          2.1199    0.0659    1.2928 N.4       1 <0>        -0.5057
     12 C7          3.6020   -1.6281    2.3384 C.ar      1 <0>        -0.1106
     13 C8          2.7707   -1.6726    3.4437 C.ar      1 <0>        -0.1133
     14 C9          3.2277   -2.1993    4.6337 C.ar      1 <0>        -0.0950
     15 C10         4.5336   -2.6887    4.7214 C.ar      1 <0>        -0.0473
     16 C11         5.3672   -2.6404    3.6010 C.ar      1 <0>        -0.1109
     17 C12         4.8947   -2.1156    2.4162 C.ar      1 <0>        -0.0759
     18 C13         5.0295   -3.2526    5.9896 C.2       1 <0>        -0.0976
     19 C14         6.2846   -3.7219    6.0702 C.2       1 <0>        -0.1125
     20 C15         6.7805   -4.2859    7.3385 C.ar      1 <0>        -0.0521
     21 C16         5.9451   -4.3390    8.4574 C.ar      1 <0>        -0.1143
     22 C17         6.4159   -4.8686    9.6407 C.ar      1 <0>        -0.1182
     23 C18         7.7120   -5.3465    9.7215 C.ar      1 <0>        -0.1229
     24 C19         8.5450   -5.2971    8.6176 C.ar      1 <0>        -0.1202
     25 C20         8.0864   -4.7752    7.4262 C.ar      1 <0>        -0.1093
     26 C21         2.3081   -3.3935   -0.1492 C.2       1 <0>         0.4986
     27 O1          3.4015   -4.1233   -0.4171 O.3       1 <0>        -0.6359
     28 N2          1.0362   -3.7807   -0.2628 N.2       1 <0>        -0.6883
     29 C22         0.1289   -2.8650    0.2270 C.2       1 <0>         0.5186
     30 O2         -1.0545   -2.7668   -0.0259 O.2       1 <0>        -0.4545
     31 C23        -0.0218   -0.1473    2.4887 C.2       1 <0>         0.5078
     32 O3         -1.1543   -0.5676    2.6542 O.co2     1 <0>        -0.6161
     33 O4          0.4926    0.5671    3.3321 O.co2     1 <0>        -0.6688
     34 O5         -1.3386   -0.4987    0.0122 O.3       1 <0>        -0.5076
     35 H5          1.0039    1.9031    0.0027 H         1 <0>         0.0508
     36 H6         -0.5459    1.8868   -0.8726 H         1 <0>         0.0813
     37 H7         -0.5289    1.8773    0.9072 H         1 <0>         0.0765
     38 H8          2.2207    0.7739    0.5810 H         1 <0>         0.4084
     39 H9          1.7617   -1.2937    3.3746 H         1 <0>         0.1432
     40 H10         2.5779   -2.2331    5.4957 H         1 <0>         0.1307
     41 H11         6.3778   -3.0165    3.6616 H         1 <0>         0.1301
     42 H12         5.5364   -2.0817    1.5482 H         1 <0>         0.1328
     43 H13         4.3830   -3.2884    6.8541 H         1 <0>         0.1246
     44 H14         6.9310   -3.6862    5.2058 H         1 <0>         0.1250
     45 H15         4.9334   -3.9661    8.3958 H         1 <0>         0.1260
     46 H16         5.7715   -4.9100   10.5064 H         1 <0>         0.1229
     47 H17         8.0754   -5.7598   10.6508 H         1 <0>         0.1206
     48 H18         9.5554   -5.6720    8.6880 H         1 <0>         0.1223
     49 H19         8.7363   -4.7411    6.5643 H         1 <0>         0.1244
     50 H20        -1.8531   -0.2245    0.7836 H         1 <0>         0.3881
     51 H21         2.2883    0.4684    2.2026 H         1 <0>         0.4284
@<TRIPOS>BOND
     1    1    2 1
     2    1   35 1
     3    1   36 1
     4    1   37 1
     5    2    3 1
     6    2    4 1
     7    2   34 1
     8    4   11 1
     9    4    5 1
    10    4   31 1
    11    5    6 1
    12    5   29 1
    13    5    7 1
    14    7    8 1
    15    7    9 1
    16    7   26 1
    17    9   10 1
    18    9   11 1
    19    9   12 1
    20   11   38 1
    21   11   51 1
    22   12   17 ar
    23   12   13 ar
    24   13   14 ar
    25   13   39 1
    26   14   15 ar
    27   14   40 1
    28   15   16 ar
    29   15   18 1
    30   16   17 ar
    31   16   41 1
    32   17   42 1
    33   18   19 2
    34   18   43 1
    35   19   20 1
    36   19   44 1
    37   20   25 ar
    38   20   21 ar
    39   21   22 ar
    40   21   45 1
    41   22   23 ar
    42   22   46 1
    43   23   24 ar
    44   23   47 1
    45   24   25 ar
    46   24   48 1
    47   25   49 1
    48   26   27 1
    49   26   28 2
    50   28   29 1
    51   29   30 2
    52   31   32 2
    53   31   33 1
    54   34   50 1
@<TRIPOS>MOLECULE
ZINC36358056
   40    42     0     0     0
SMALL
USER_CHARGES

@<TRIPOS>ATOM
      1 C1         -0.0187    1.3753   -0.0231 C.ar      1 <0>        -0.1403
      2 C2          1.0869    1.9470   -0.6262 C.ar      1 <0>        -0.0629
      3 C3          2.2949    1.2780   -0.6327 C.ar      1 <0>        -0.1345
      4 C4          2.3991    0.0299   -0.0322 C.ar      1 <0>         0.2057
      5 C5          1.2874   -0.5411    0.5729 C.ar      1 <0>        -0.2195
      6 C6          0.0818    0.1331    0.5755 C.ar      1 <0>        -0.0511
      7 C7          1.3959   -1.8951    1.2255 C.3       1 <0>         0.5080
      8 F1          0.1548   -2.2554    1.7612 F         1 <0>        -0.1724
      9 F2          1.7853   -2.8423    0.2725 F         1 <0>        -0.1776
     10 F3          2.3485   -1.8445    2.2489 F         1 <0>        -0.1728
     11 N1          3.6216   -0.6508   -0.0375 N.am      1 <0>        -0.6710
     12 C8          4.7754    0.0370   -0.1474 C.2       1 <0>         0.5472
     13 O1          4.7614    1.2498   -0.1409 O.2       1 <0>        -0.4887
     14 C9          6.0829   -0.7008   -0.2784 C.3       1 <0>        -0.1789
     15 S1          7.4414    0.4944   -0.4063 S.3       1 <0>         0.0805
     16 C10         8.8813   -0.5108   -0.5513 C.2       1 <0>        -0.2299
     17 C11        10.2013   -0.0901   -0.6730 C.2       1 <0>        -0.1748
     18 C12        11.2238   -1.1181   -0.7778 C.2       1 <0>         0.1811
     19 C13        10.7113   -2.4116   -0.7395 C.2       1 <0>        -0.2304
     20 S2          8.9628   -2.1863   -0.5658 S.3       1 <0>         0.2558
     21 C14        11.5384   -3.5323   -0.8266 C.2       1 <0>         0.3527
     22 C15        12.9073   -3.3441   -0.9547 C.2       1 <0>        -0.4419
     23 C16        13.4092   -2.0415   -0.9919 C.2       1 <0>         0.5378
     24 O2         14.6131   -1.8688   -1.1049 O.2       1 <0>        -0.6123
     25 N2         12.5995   -0.9760   -0.9065 N.am      1 <0>        -0.6214
     26 H1         12.9833   -0.0856   -0.9358 H         1 <0>         0.3929
     27 O3         11.0144   -4.7812   -0.7864 O.3       1 <0>        -0.6861
     28 C17        10.5475    1.3320   -0.6950 C.2       1 <0>         0.5862
     29 O4         10.7910    1.9154    0.3453 O.2       1 <0>        -0.5287
     30 N3         10.5965    1.9955   -1.8671 N.am      1 <0>        -0.8443
     31 H2         -0.9613    1.9024   -0.0157 H         1 <0>         0.1365
     32 H3          1.0052    2.9175   -1.0929 H         1 <0>         0.1377
     33 H4          3.1576    1.7246   -1.1045 H         1 <0>         0.1586
     34 H5         -0.7833   -0.3105    1.0460 H         1 <0>         0.1424
     35 H6          3.6386   -1.6177    0.0380 H         1 <0>         0.4168
     36 H7          6.2342   -1.3305    0.5984 H         1 <0>         0.1321
     37 H8          6.0609   -1.3230   -1.1731 H         1 <0>         0.1331
     38 H9         13.5736   -4.1912   -1.0240 H         1 <0>         0.1282
     39 H10        10.4024    1.5307   -2.6961 H         1 <0>         0.4042
     40 H11        10.8258    2.9379   -1.8817 H         1 <0>         0.4021
@<TRIPOS>BOND
     1    1    6 ar
     2    1    2 ar
     3    1   31 1
     4    2    3 ar
     5    2   32 1
     6    3    4 ar
     7    3   33 1
     8    4    5 ar
     9    4   11 1
    10    5    6 ar
    11    5    7 1
    12    6   34 1
    13    7    8 1
    14    7    9 1
    15    7   10 1
    16   11   12 am
    17   11   35 1
    18   12   13 2
    19   12   14 1
    20   14   15 1
    21   14   36 1
    22   14   37 1
    23   15   16 1
    24   16   20 1
    25   16   17 2
    26   17   18 1
    27   17   28 1
    28   18   25 1
    29   18   19 2
    30   19   20 1
    31   19   21 1
    32   21   22 2
    33   21   27 1
    34   22   23 1
    35   22   38 1
    36   23   24 2
    37   23   25 am
    38   25   26 1
    39   28   29 2
    40   28   30 am
    41   30   39 1
    42   30   40 1
@<TRIPOS>MOLECULE
ZINC66713900
   46    47     0     0     0
SMALL
USER_CHARGES

@<TRIPOS>ATOM
      1 C1          0.3196    1.8834   -0.0318 C.3       1 <0>        -0.1420
      2 C2          0.2061    0.3576   -0.0299 C.3       1 <0>        -0.1170
      3 C3          0.8943   -0.2035    1.2160 C.3       1 <0>        -0.5923
      4 S1          0.7597   -2.0125    1.2181 S.o2      1 <0>         2.5180
      5 O1         -0.5939   -2.4023    1.4056 O.2       1 <0>        -1.0280
      6 O2          1.5318   -2.5620    0.1594 O.2       1 <0>        -1.0280
      7 N1          1.5337   -2.4952    2.6003 N.2       1 <0>        -1.0415
      8 C4          1.6164   -3.8455    2.9144 C.ar      1 <0>         0.3356
      9 C5          1.0560   -4.7949    2.0687 C.ar      1 <0>        -0.2581
     10 C6          1.1390   -6.1356    2.3832 C.ar      1 <0>        -0.0433
     11 C7          1.7804   -6.5465    3.5412 C.ar      1 <0>        -0.2378
     12 C8          2.3421   -5.6202    4.3920 C.ar      1 <0>        -0.0411
     13 C9          2.2716   -4.2587    4.0848 C.ar      1 <0>        -0.2293
     14 C10         2.8763   -3.2625    4.9875 C.2       1 <0>         0.5644
     15 O3          2.8083   -2.0783    4.7190 O.2       1 <0>        -0.4812
     16 N2          3.5044   -3.6640    6.1103 N.am      1 <0>        -0.6913
     17 C11         4.1678   -2.7298    6.9127 C.ar      1 <0>         0.1570
     18 C12         3.6506   -1.4479    7.0596 C.ar      1 <0>        -0.0887
     19 C13         4.3021   -0.5214    7.8517 C.ar      1 <0>        -0.1127
     20 C14         5.4706   -0.8627    8.5022 C.ar      1 <0>        -0.0477
     21 C15         5.9982   -2.1473    8.3613 C.ar      1 <0>        -0.1332
     22 C16         5.3379   -3.0840    7.5660 C.ar      1 <0>        -0.1207
     23 C17         7.2498   -2.5156    9.0571 C.2       1 <0>         0.5687
     24 O4          7.8610   -1.6786    9.6922 O.2       1 <0>        -0.5387
     25 N3          7.7129   -3.7793    8.9870 N.am      1 <0>        -0.8534
     26 C18         6.1771    0.1516    9.3642 C.3       1 <0>        -0.1223
     27 H1          1.3714    2.1695   -0.0378 H         1 <0>         0.0561
     28 H2         -0.1707    2.2832   -0.9194 H         1 <0>         0.0548
     29 H3         -0.1609    2.2846    0.8606 H         1 <0>         0.0561
     30 H4         -0.8457    0.0716   -0.0239 H         1 <0>         0.0709
     31 H5          0.6866   -0.0435   -0.9223 H         1 <0>         0.0708
     32 H6          1.9461    0.0825    1.2099 H         1 <0>         0.1211
     33 H7          0.4138    0.1977    2.1083 H         1 <0>         0.1211
     34 H8          0.5545   -4.4830    1.1644 H         1 <0>         0.1073
     35 H9          0.7012   -6.8697    1.7230 H         1 <0>         0.1057
     36 H10         1.8397   -7.5986    3.7779 H         1 <0>         0.1064
     37 H11         2.8400   -5.9460    5.2933 H         1 <0>         0.1048
     38 H12         3.4964   -4.6007    6.3620 H         1 <0>         0.4027
     39 H13         2.7369   -1.1748    6.5528 H         1 <0>         0.1489
     40 H14         3.8957    0.4731    7.9617 H         1 <0>         0.1293
     41 H15         5.7391   -4.0807    7.4565 H         1 <0>         0.1250
     42 H16         7.2252   -4.4473    8.4802 H         1 <0>         0.4008
     43 H17         8.5340   -4.0210    9.4435 H         1 <0>         0.4023
     44 H18         5.9016   -0.0032   10.4074 H         1 <0>         0.0671
     45 H19         7.2551    0.0358    9.2521 H         1 <0>         0.0982
     46 H20         5.8856    1.1558    9.0566 H         1 <0>         0.0550
@<TRIPOS>BOND
     1    1    2 1
     2    1   27 1
     3    1   28 1
     4    1   29 1
     5    2    3 1
     6    2   30 1
     7    2   31 1
     8    3    4 1
     9    3   32 1
    10    3   33 1
    11    4    5 2
    12    4    6 2
    13    4    7 1
    14    7    8 1
    15    8   13 ar
    16    8    9 ar
    17    9   10 ar
    18    9   34 1
    19   10   11 ar
    20   10   35 1
    21   11   12 ar
    22   11   36 1
    23   12   13 ar
    24   12   37 1
    25   13   14 1
    26   14   15 2
    27   14   16 am
    28   16   17 1
    29   16   38 1
    30   17   22 ar
    31   17   18 ar
    32   18   19 ar
    33   18   39 1
    34   19   20 ar
    35   19   40 1
    36   20   21 ar
    37   20   26 1
    38   21   22 ar
    39   21   23 1
    40   22   41 1
    41   23   24 2
    42   23   25 am
    43   25   42 1
    44   25   43 1
    45   26   44 1
    46   26   45 1
    47   26   46 1
@<TRIPOS>MOLECULE
ZINC32542045
   46    47     0     0     0
SMALL
USER_CHARGES
N-(4-bromo-2-fluoro-phenyl)-2-[methyl-[(1R)-1-(4-sulfamoylphenyl)ethyl]amino]acetamide
@<TRIPOS>ATOM
      1 C1         -2.1065    2.5114    3.7470 C.3       1 <0>        -0.1818
      2 C2         -3.1063    2.9439    4.8214 C.3       1 <0>         0.0792
      3 H1         -2.6657    2.8605    5.8258 H         1 <0>         0.1494
      4 C3         -4.3407    2.0838    4.7344 C.ar      1 <0>        -0.0853
      5 C4         -4.4711    0.9773    5.5526 C.ar      1 <0>        -0.1081
      6 C5         -5.6032    0.1881    5.4725 C.ar      1 <0>         0.0049
      7 C6         -6.6048    0.5053    4.5742 C.ar      1 <0>        -0.6432
      8 C7         -6.4720    1.6088    3.7523 C.ar      1 <0>        -0.0064
      9 C8         -5.3423    2.4011    3.8360 C.ar      1 <0>        -0.1499
     10 S1         -8.0476   -0.5010    4.4717 S.o2      1 <0>         2.6287
     11 O1         -7.6823   -1.7852    4.9581 O.2       1 <0>        -0.9378
     12 O2         -8.5887   -0.3039    3.1726 O.2       1 <0>        -0.9741
     13 N1         -9.1508    0.1145    5.5424 N.pl3     1 <0>        -1.1598
     14 N2         -3.4737    4.3505    4.6105 N.4       1 <0>        -0.3913
     15 C9         -2.2776    5.1929    4.4777 C.3       1 <0>        -0.0614
     16 C10        -4.3419    4.8356    5.6916 C.3       1 <0>        -0.0316
     17 C11        -4.8950    6.1882    5.3232 C.2       1 <0>         0.5096
     18 O3         -4.5955    6.6978    4.2641 O.2       1 <0>        -0.5131
     19 N3         -5.7226    6.8314    6.1704 N.am      1 <0>        -0.6571
     20 C12        -6.1687    8.1242    5.8673 C.ar      1 <0>         0.1102
     21 C13        -6.4049    8.4870    4.5485 C.ar      1 <0>        -0.0854
     22 C14        -6.8447    9.7625    4.2520 C.ar      1 <0>        -0.0797
     23 C15        -7.0507   10.6791    5.2678 C.ar      1 <0>        -0.0685
     24 C16        -6.8166   10.3220    6.5837 C.ar      1 <0>        -0.1060
     25 C17        -6.3812    9.0449    6.8874 C.ar      1 <0>         0.0941
     26 F1         -6.1583    8.6939    8.1728 F         1 <0>        -0.1260
     27 Br1        -7.6529   12.4239    4.8565 Br        1 <0>        -0.0138
     28 H2         -1.2055    3.1392    3.8106 H         1 <0>         0.0947
     29 H3         -2.5639    2.6259    2.7532 H         1 <0>         0.0873
     30 H4         -1.8314    1.4581    3.9049 H         1 <0>         0.1124
     31 H5         -3.6885    0.7292    6.2543 H         1 <0>         0.1486
     32 H6         -5.7050   -0.6766    6.1116 H         1 <0>         0.1583
     33 H7         -7.2525    1.8542    3.0473 H         1 <0>         0.1548
     34 H8         -5.2402    3.2653    3.1965 H         1 <0>         0.1297
     35 H9        -10.0702   -0.4885    5.5088 H         1 <0>         0.4237
     36 H10        -9.3843    1.1546    5.2710 H         1 <0>         0.4083
     37 H11        -2.5811    6.2385    4.3211 H         1 <0>         0.1410
     38 H12        -1.6821    4.8513    3.6182 H         1 <0>         0.1337
     39 H13        -1.6740    5.1197    5.3944 H         1 <0>         0.1216
     40 H14        -5.1713    4.1286    5.8410 H         1 <0>         0.1625
     41 H15        -3.7590    4.9185    6.6208 H         1 <0>         0.1657
     42 H16        -6.0478    6.3412    7.0999 H         1 <0>         0.4529
     43 H17        -6.2452    7.7724    3.7547 H         1 <0>         0.1569
     44 H18        -7.0285   10.0446    3.2258 H         1 <0>         0.1500
     45 H19        -6.9782   11.0395    7.3746 H         1 <0>         0.1572
     46 H20        -4.0385    4.4148    3.6688 H         1 <0>         0.4450
@<TRIPOS>BOND
     1    1    2 1
     2    1   28 1
     3    1   29 1
     4    1   30 1
     5    2    3 1
     6    2    4 1
     7    2   14 1
     8    4    9 ar
     9    4    5 ar
    10    5    6 ar
    11    5   31 1
    12    6    7 ar
    13    6   32 1
    14    7    8 ar
    15    7   10 1
    16    8    9 ar
    17    8   33 1
    18    9   34 1
    19   10   11 2
    20   10   12 2
    21   10   13 1
    22   13   35 1
    23   13   36 1
    24   14   15 1
    25   14   16 1
    26   14   46 1
    27   15   37 1
    28   15   38 1
    29   15   39 1
    30   16   17 1
    31   16   40 1
    32   16   41 1
    33   17   18 2
    34   17   19 am
    35   19   20 1
    36   19   42 1
    37   20   25 ar
    38   20   21 ar
    39   21   22 ar
    40   21   43 1
    41   22   23 ar
    42   22   44 1
    43   23   24 ar
    44   23   27 1
    45   24   25 ar
    46   24   45 1
    47   25   26 1
@<TRIPOS>MOLECULE
ZINC39671599
   60    64     0     0     0
SMALL
USER_CHARGES

@<TRIPOS>ATOM
      1 C1         -0.0115    1.5150    0.0210 C.3       1 <0>        -0.1075
      2 C2         -0.0086    0.0080    0.0085 C.2       1 <0>        -0.0169
      3 C3         -0.0198   -0.7132   -1.1612 C.2       1 <0>        -0.1861
      4 C4         -0.0159   -2.0678   -1.1004 C.2       1 <0>        -0.2168
      5 S1          0.0030   -2.4061    0.5451 S.3       1 <0>         0.2020
      6 C5          0.0114   -0.7390    1.1765 C.2       1 <0>        -0.2758
      7 C6          0.0321   -0.2780    2.5678 C.2       1 <0>         0.6435
      8 O1          0.1223    0.9104    2.8138 O.2       1 <0>        -0.5194
      9 N1         -0.0487   -1.1704    3.5746 N.am      1 <0>        -0.6178
     10 C7         -0.0411   -2.6493    3.4804 C.3       1 <0>         0.1116
     11 C8          0.8126   -3.1126    4.6821 C.3       1 <0>        -0.1124
     12 H1          0.3995   -4.0253    5.1116 H         1 <0>         0.1198
     13 C9          0.7255   -1.9576    5.6938 C.3       1 <0>        -0.0724
     14 C10        -0.1589   -0.8941    5.0270 C.3       1 <0>         0.1111
     15 C11         2.1141   -1.3862    5.9641 C.3       1 <0>        -0.1463
     16 C12         2.0089   -0.2778    7.0154 C.3       1 <0>        -0.0096
     17 N2          1.4339   -0.8250    8.2502 N.4       1 <0>        -0.5048
     18 C13         0.0633   -1.2883    8.0022 C.3       1 <0>        -0.0102
     19 C14         0.0862   -2.4393    6.9925 C.3       1 <0>        -0.1341
     20 C15         2.2412   -3.3340    4.2566 C.2       1 <0>         0.5141
     21 O2          2.7391   -2.6222    3.4102 O.2       1 <0>        -0.5109
     22 N3          2.9655   -4.3231    4.8165 N.am      1 <0>        -0.7263
     23 C16         4.3543   -4.5383    4.4029 C.3       1 <0>         0.1848
     24 C17         4.9347   -5.6955    5.1743 C.2       1 <0>         0.0395
     25 H2          5.5927   -4.7881    6.9298 H         1 <0>         0.4105
     26 C18         4.9755   -6.9661    4.7430 C.2       1 <0>        -0.1581
     27 C19         5.6174   -7.7557    5.7967 C.ar      1 <0>        -0.1159
     28 C20         5.9405   -9.1065    5.9366 C.ar      1 <0>        -0.0649
     29 C21         6.5556   -9.5424    7.0764 C.ar      1 <0>        -0.1426
     30 C22         6.8620   -8.6527    8.0966 C.ar      1 <0>        -0.0868
     31 C23         6.5521   -7.3152    7.9794 C.ar      1 <0>        -0.1362
     32 C24         5.9259   -6.8496    6.8281 C.ar      1 <0>         0.1045
     33 N4          5.5032   -5.6057    6.4157 N.pl3     1 <0>        -0.5916
     34 H3          1.0153    1.8804    0.0077 H         1 <0>         0.0785
     35 H4         -0.5401    1.8846   -0.8577 H         1 <0>         0.0700
     36 H5         -0.5119    1.8699    0.9219 H         1 <0>         0.0850
     37 H6         -0.0318   -0.2081   -2.1158 H         1 <0>         0.1410
     38 H7         -0.0236   -2.7689   -1.9219 H         1 <0>         0.1903
     39 H8         -1.0552   -3.0405    3.5613 H         1 <0>         0.0970
     40 H9          0.4165   -2.9680    2.5438 H         1 <0>         0.0969
     41 H10         0.2129    0.1051    5.2535 H         1 <0>         0.0914
     42 H11        -1.1922   -1.0005    5.3572 H         1 <0>         0.0873
     43 H12         2.7674   -2.1769    6.3331 H         1 <0>         0.0916
     44 H13         2.5244   -0.9752    5.0418 H         1 <0>         0.1274
     45 H14         3.0017    0.1213    7.2229 H         1 <0>         0.1381
     46 H15         1.3684    0.5200    6.6391 H         1 <0>         0.1359
     47 H16         1.9972   -1.5998    8.5673 H         1 <0>         0.4266
     48 H17        -0.3778   -1.6341    8.9371 H         1 <0>         0.1405
     49 H18        -0.5310   -0.4665    7.6027 H         1 <0>         0.1340
     50 H19        -0.9333   -2.7706    6.7952 H         1 <0>         0.1234
     51 H20         0.6665   -3.2679    7.3983 H         1 <0>         0.0975
     52 H21         2.5673   -4.8924    5.4935 H         1 <0>         0.4034
     53 H22         4.3855   -4.7606    3.3363 H         1 <0>         0.0997
     54 H23         4.9368   -3.6392    4.6038 H         1 <0>         0.0799
     55 H24         4.6048   -7.3360    3.7985 H         1 <0>         0.1502
     56 H25         5.7048   -9.8046    5.1471 H         1 <0>         0.1259
     57 H26         6.8050  -10.5876    7.1843 H         1 <0>         0.1274
     58 H27         7.3480   -9.0123    8.9916 H         1 <0>         0.1292
     59 H28         6.7943   -6.6308    8.7789 H         1 <0>         0.1199
     60 H29         1.4220   -0.1085    8.9605 H         1 <0>         0.4344
@<TRIPOS>BOND
     1    1    2 1
     2    1   34 1
     3    1   35 1
     4    1   36 1
     5    2    6 2
     6    2    3 1
     7    3    4 2
     8    3   37 1
     9    4    5 1
    10    4   38 1
    11    5    6 1
    12    6    7 1
    13    7    8 2
    14    7    9 am
    15    9   14 1
    16    9   10 1
    17   10   11 1
    18   10   39 1
    19   10   40 1
    20   11   12 1
    21   11   13 1
    22   11   20 1
    23   13   19 1
    24   13   14 1
    25   13   15 1
    26   14   41 1
    27   14   42 1
    28   15   16 1
    29   15   43 1
    30   15   44 1
    31   16   17 1
    32   16   45 1
    33   16   46 1
    34   17   18 1
    35   17   47 1
    36   17   60 1
    37   18   19 1
    38   18   48 1
    39   18   49 1
    40   19   50 1
    41   19   51 1
    42   20   21 2
    43   20   22 am
    44   22   23 1
    45   22   52 1
    46   23   53 1
    47   23   54 1
    48   23   24 1
    49   24   26 2
    50   24   33 1
    51   25   33 1
    52   26   27 1
    53   26   55 1
    54   27   28 ar
    55   27   32 ar
    56   28   29 ar
    57   28   56 1
    58   29   30 ar
    59   29   57 1
    60   30   31 ar
    61   30   58 1
    62   31   32 ar
    63   31   59 1
    64   32   33 1
@<TRIPOS>MOLECULE
ZINC50460064
   32    33     0     0     0
SMALL
USER_CHARGES

@<TRIPOS>ATOM
      1 C1          3.0436    0.4554   -1.2330 C.3       1 <0>         0.0340
      2 O1          2.2685   -0.7059   -0.9286 O.3       1 <0>        -0.3403
      3 C2          2.2884   -1.1374    0.3478 C.2       1 <0>         0.5165
      4 O2          2.9459   -0.5438    1.1796 O.2       1 <0>        -0.5008
      5 C3          1.5127   -2.3293    0.7350 C.ar      1 <0>        -0.1167
      6 C4          0.8574   -3.0883   -0.2386 C.ar      1 <0>        -0.0060
      7 C5          0.1338   -4.2023    0.1297 C.ar      1 <0>        -0.0967
      8 C6          0.0517   -4.5745    1.4628 C.ar      1 <0>        -0.0142
      9 C7          0.6934   -3.8340    2.4358 C.ar      1 <0>        -0.0925
     10 C8          1.4324   -2.7119    2.0823 C.ar      1 <0>         0.2274
     11 N1          2.0853   -1.9667    3.0617 N.am      1 <0>        -0.6445
     12 C9          3.0893   -2.5190    3.7712 C.2       1 <0>         0.5595
     13 O3          3.4663   -3.6428    3.5147 O.2       1 <0>        -0.5483
     14 C10         3.7434   -1.7402    4.8833 C.3       1 <0>        -0.1700
     15 H1          3.8216   -0.6651    4.7214 H         1 <0>         0.1689
     16 C11         3.5108   -2.2238    6.3161 C.3       1 <0>        -0.1234
     17 C12         4.8759   -2.4230    5.6527 C.3       1 <0>        -0.0339
     18 H2          5.6990   -1.7971    5.9974 H         1 <0>         0.1940
     19 N2          5.2425   -3.7876    5.2509 N.4       1 <0>        -0.6015
     20 Br1         0.5728   -4.3524    4.2503 Br        1 <0>        -0.0118
     21 Br2        -0.7518   -5.2276   -1.1896 Br        1 <0>         0.0008
     22 H3          4.0920    0.2624   -1.0054 H         1 <0>         0.0653
     23 H4          2.9397    0.6944   -2.2914 H         1 <0>         0.1129
     24 H5          2.6904    1.2951   -0.6345 H         1 <0>         0.0674
     25 H6          0.9177   -2.8022   -1.2783 H         1 <0>         0.1667
     26 H7         -0.5178   -5.4486    1.7420 H         1 <0>         0.1611
     27 H8          1.8173   -1.0503    3.2330 H         1 <0>         0.4300
     28 H9          3.4364   -1.4669    7.0969 H         1 <0>         0.1519
     29 H10         2.8847   -3.1053    6.4544 H         1 <0>         0.1269
     30 H11         5.5385   -3.7861    4.2863 H         1 <0>         0.4431
     31 H12         5.9967   -4.1186    5.8337 H         1 <0>         0.4371
     32 H13         4.4440   -4.3953    5.3567 H         1 <0>         0.4371
@<TRIPOS>BOND
     1    1    2 1
     2    1   22 1
     3    1   23 1
     4    1   24 1
     5    2    3 1
     6    3    4 2
     7    3    5 1
     8    5   10 ar
     9    5    6 ar
    10    6    7 ar
    11    6   25 1
    12    7    8 ar
    13    7   21 1
    14    8    9 ar
    15    8   26 1
    16    9   10 ar
    17    9   20 1
    18   10   11 1
    19   11   12 am
    20   11   27 1
    21   12   13 2
    22   12   14 1
    23   14   15 1
    24   14   17 1
    25   14   16 1
    26   16   17 1
    27   16   28 1
    28   16   29 1
    29   17   18 1
    30   17   19 1
    31   19   30 1
    32   19   31 1
    33   19   32 1
@<TRIPOS>MOLECULE
ZINC63641802
   54    58     0     0     0
SMALL
USER_CHARGES

@<TRIPOS>ATOM
      1 C1          0.3135    1.1797   -0.1024 C.3       1 <0>        -0.1134
      2 C2          0.3408   -0.3236    0.0007 C.ar      1 <0>        -0.0673
      3 C3          0.4400   -1.0933   -1.1419 C.ar      1 <0>        -0.1132
      4 C4          0.4651   -2.4725   -1.0481 C.ar      1 <0>        -0.0953
      5 C5          0.3914   -3.0859    0.1893 C.ar      1 <0>        -0.1136
      6 C6          0.2925   -2.3220    1.3354 C.ar      1 <0>        -0.0825
      7 C7          0.2719   -0.9362    1.2449 C.ar      1 <0>         0.1136
      8 N1          0.1771   -0.1591    2.4047 N.am      1 <0>        -0.5297
      9 C8         -1.1502    0.1916    2.8971 C.3       1 <0>         0.3669
     10 H1         -1.5483    1.0140    2.3028 H         1 <0>         0.0834
     11 N2         -1.0876    0.5985    4.3056 N.3       1 <0>        -0.7077
     12 C9         -0.0725    1.6479    4.4931 C.3       1 <0>         0.2721
     13 H2         -0.2324    2.4460    3.7682 H         1 <0>         0.0750
     14 C10         1.3110    1.0273    4.2786 C.3       1 <0>        -0.0915
     15 H3          1.5513    0.3758    5.1188 H         1 <0>         0.1283
     16 C11         1.3080    0.2203    3.0093 C.2       1 <0>         0.5330
     17 O1          2.3696   -0.0939    2.5140 O.2       1 <0>        -0.5041
     18 C12         2.3584    2.1380    4.1785 C.3       1 <0>         0.1130
     19 H4          3.3279    1.7072    3.9281 H         1 <0>         0.0881
     20 C13         2.4529    2.8797    5.5139 C.3       1 <0>         0.0868
     21 H5          1.4678    3.2227    5.8300 H         1 <0>         0.2006
     22 C14         3.3819    4.0652    5.2781 C.2       1 <0>         0.0674
     23 C15         4.3335    3.9846    6.1975 C.ar      1 <0>        -0.1674
     24 C16         5.4549    4.8779    6.5307 C.ar      1 <0>         0.0021
     25 C17         6.2636    4.4726    7.5453 C.ar      1 <0>        -0.1610
     26 C18         6.0717    3.2822    8.2534 C.ar      1 <0>         0.0531
     27 C19         5.0640    2.4042    8.0188 C.ar      1 <0>        -0.2061
     28 C20         4.1439    2.7238    6.9785 C.ar      1 <0>         0.3307
     29 N3          3.0745    2.0729    6.5629 N.pl3     1 <0>        -0.5773
     30 C21         3.1846    5.0067    4.1149 C.3       1 <0>        -0.0835
     31 C22         2.9822    4.1191    2.8732 C.3       1 <0>         0.0570
     32 N4          1.9611    3.1021    3.1400 N.3       1 <0>        -0.6910
     33 O2         -0.1665    2.1760    5.8176 O.3       1 <0>        -0.5568
     34 S1         -2.2458   -1.2456    2.7389 S.3       1 <0>        -0.1794
     35 H6          1.3321    1.5653   -0.0591 H         1 <0>         0.0696
     36 H7         -0.1453    1.4707   -1.0473 H         1 <0>         0.0770
     37 H8         -0.2659    1.5902    0.7245 H         1 <0>         0.0561
     38 H9          0.4978   -0.6174   -2.1097 H         1 <0>         0.1308
     39 H10         0.5421   -3.0722   -1.9430 H         1 <0>         0.1307
     40 H11         0.4109   -4.1634    0.2592 H         1 <0>         0.1315
     41 H12         0.2347   -2.8016    2.3014 H         1 <0>         0.1273
     42 H13        -1.9908    0.9063    4.6336 H         1 <0>         0.3697
     43 H14         5.6257    5.8023    5.9991 H         1 <0>         0.1691
     44 H15         7.0974    5.1023    7.8184 H         1 <0>         0.1544
     45 H16         6.7730    3.0454    9.0399 H         1 <0>         0.1572
     46 H17         4.9634    1.4981    8.5978 H         1 <0>         0.1678
     47 H18         2.3032    5.6265    4.2800 H         1 <0>         0.1291
     48 H19         4.0666    5.6342    3.9871 H         1 <0>         0.1167
     49 H20         2.6649    4.7383    2.0342 H         1 <0>         0.1137
     50 H21         3.9229    3.6288    2.6224 H         1 <0>         0.0550
     51 H22         1.6914    2.6283    2.2910 H         1 <0>         0.3691
     52 H23        -1.0247    2.5713    6.0234 H         1 <0>         0.3971
     53 H24        -3.4250   -0.8099    3.2169 H         1 <0>         0.0926
     54 H25         2.7545    1.2153    6.8840 H         1 <0>         0.4553
@<TRIPOS>BOND
     1    1    2 1
     2    1   35 1
     3    1   36 1
     4    1   37 1
     5    2    7 ar
     6    2    3 ar
     7    3    4 ar
     8    3   38 1
     9    4    5 ar
    10    4   39 1
    11    5    6 ar
    12    5   40 1
    13    6    7 ar
    14    6   41 1
    15    7    8 1
    16    8   16 am
    17    8    9 1
    18    9   10 1
    19    9   11 1
    20    9   34 1
    21   11   12 1
    22   11   42 1
    23   12   13 1
    24   12   14 1
    25   12   33 1
    26   14   15 1
    27   14   16 1
    28   14   18 1
    29   16   17 2
    30   18   19 1
    31   18   32 1
    32   18   20 1
    33   20   21 1
    34   20   29 1
    35   20   22 1
    36   22   23 2
    37   22   30 1
    38   23   28 ar
    39   23   24 ar
    40   24   25 ar
    41   24   43 1
    42   25   26 ar
    43   25   44 1
    44   26   27 ar
    45   26   45 1
    46   27   28 ar
    47   27   46 1
    48   28   29 2
    49   29   54 1
    50   30   31 1
    51   30   47 1
    52   30   48 1
    53   31   32 1
    54   31   49 1
    55   31   50 1
    56   32   51 1
    57   33   52 1
    58   34   53 1
@<TRIPOS>MOLECULE
ZINC67486763
   57    59     0     0     0
SMALL
USER_CHARGES

@<TRIPOS>ATOM
      1 C1         -0.0974    1.5107    0.0117 C.3       1 <0>        -0.1828
      2 C2         -0.0546   -0.0187    0.0046 C.3       1 <0>         0.0028
      3 H1         -1.0669   -0.4109    0.1012 H         1 <0>         0.1640
      4 C3          0.7841   -0.5030    1.1592 C.2       1 <0>         0.5058
      5 O1          1.7741   -1.1718    0.9510 O.2       1 <0>        -0.5235
      6 N1          0.4339   -0.1929    2.4232 N.am      1 <0>        -0.6966
      7 C4          1.2492   -0.6638    3.5456 C.3       1 <0>         0.1343
      8 C5          2.4038    0.3119    3.7819 C.3       1 <0>        -0.1680
      9 C6          0.3845   -0.7453    4.8052 C.3       1 <0>        -0.1670
     10 N2          0.5334   -0.4862   -1.2577 N.4       1 <0>        -0.3677
     11 C7         -0.2164    0.0800   -2.3894 C.3       1 <0>        -0.0092
     12 C8          0.5814   -0.1608   -3.6717 C.3       1 <0>        -0.1022
     13 C9          0.9691   -1.6143   -3.7657 C.ar      1 <0>        -0.1248
     14 C10         0.9166   -2.4449   -2.6675 C.ar      1 <0>        -0.1051
     15 C11         1.2861   -3.7761   -2.7930 C.ar      1 <0>        -0.1055
     16 C12         1.7029   -4.2760   -4.0112 C.ar      1 <0>        -0.0822
     17 C13         1.7546   -3.4484   -5.1154 C.ar      1 <0>        -0.0981
     18 C14         1.3880   -2.1157   -4.9948 C.ar      1 <0>         0.1830
     19 N3          1.4398   -1.2737   -6.1112 N.am      1 <0>        -0.6842
     20 C15         1.1525   -1.7590   -7.3353 C.2       1 <0>         0.7048
     21 O2          0.9216   -2.9439   -7.4806 O.2       1 <0>        -0.5455
     22 N4          1.1212   -0.9310   -8.3982 N.am      1 <0>        -0.6756
     23 C16         0.7042   -1.4096   -9.6466 C.ar      1 <0>         0.1412
     24 C17        -0.2915   -2.3742   -9.7241 C.ar      1 <0>        -0.0882
     25 C18        -0.7014   -2.8448  -10.9562 C.ar      1 <0>        -0.1328
     26 C19        -0.1200   -2.3554  -12.1137 C.ar      1 <0>         0.0931
     27 C20         0.8732   -1.3935  -12.0386 C.ar      1 <0>        -0.1316
     28 C21         1.2818   -0.9160  -10.8087 C.ar      1 <0>        -0.1108
     29 F1         -0.5220   -2.8175  -13.3179 F         1 <0>        -0.1344
     30 C22         0.4606   -1.9487   -1.3207 C.3       1 <0>         0.0382
     31 H2          0.9190    1.9029   -0.0246 H         1 <0>         0.0906
     32 H3         -0.6538    1.8626   -0.8571 H         1 <0>         0.1000
     33 H4         -0.5879    1.8563    0.9217 H         1 <0>         0.1121
     34 H5         -0.3579    0.3420    2.5898 H         1 <0>         0.4089
     35 H6          1.6493   -1.6511    3.3151 H         1 <0>         0.0974
     36 H7          3.0199    0.3700    2.8846 H         1 <0>         0.0605
     37 H8          2.0037    1.2993    4.0125 H         1 <0>         0.0623
     38 H9          3.0104   -0.0384    4.6171 H         1 <0>         0.0775
     39 H10        -0.4381   -1.4404    4.6369 H         1 <0>         0.0660
     40 H11         0.9911   -1.0956    5.6403 H         1 <0>         0.0842
     41 H12        -0.0156    0.2421    5.0358 H         1 <0>         0.0666
     42 H13        -1.1879   -0.4084   -2.4657 H         1 <0>         0.1367
     43 H14        -0.3529    1.1508   -2.2389 H         1 <0>         0.1437
     44 H15        -0.0287    0.1081   -4.5340 H         1 <0>         0.1204
     45 H16         1.4812    0.4543   -3.6596 H         1 <0>         0.1017
     46 H17         1.2477   -4.4265   -1.9317 H         1 <0>         0.1359
     47 H18         1.9881   -5.3139   -4.1002 H         1 <0>         0.1416
     48 H19         2.0788   -3.8371   -6.0695 H         1 <0>         0.1539
     49 H20         1.6824   -0.3406   -6.0041 H         1 <0>         0.4093
     50 H21         1.3876   -0.0036   -8.2986 H         1 <0>         0.4108
     51 H22        -0.7450   -2.7564   -8.8215 H         1 <0>         0.1422
     52 H23        -1.4756   -3.5954  -11.0168 H         1 <0>         0.1422
     53 H24         1.3256   -1.0133  -12.9426 H         1 <0>         0.1443
     54 H25         2.0534   -0.1625  -10.7507 H         1 <0>         0.1378
     55 H26         1.0989   -2.3739   -0.5462 H         1 <0>         0.1571
     56 H27        -0.5687   -2.2648   -1.1507 H         1 <0>         0.1345
     57 H28         1.4977   -0.1937   -1.3098 H         1 <0>         0.4306
@<TRIPOS>BOND
     1    1    2 1
     2    1   31 1
     3    1   32 1
     4    1   33 1
     5    2    3 1
     6    2    4 1
     7    2   10 1
     8    4    5 2
     9    4    6 am
    10    6    7 1
    11    6   34 1
    12    7    8 1
    13    7    9 1
    14    7   35 1
    15    8   36 1
    16    8   37 1
    17    8   38 1
    18    9   39 1
    19    9   40 1
    20    9   41 1
    21   10   30 1
    22   10   11 1
    23   10   57 1
    24   11   12 1
    25   11   42 1
    26   11   43 1
    27   12   13 1
    28   12   44 1
    29   12   45 1
    30   13   18 ar
    31   13   14 ar
    32   14   15 ar
    33   14   30 1
    34   15   16 ar
    35   15   46 1
    36   16   17 ar
    37   16   47 1
    38   17   18 ar
    39   17   48 1
    40   18   19 1
    41   19   20 am
    42   19   49 1
    43   20   21 2
    44   20   22 am
    45   22   23 1
    46   22   50 1
    47   23   28 ar
    48   23   24 ar
    49   24   25 ar
    50   24   51 1
    51   25   26 ar
    52   25   52 1
    53   26   27 ar
    54   26   29 1
    55   27   28 ar
    56   27   53 1
    57   28   54 1
    58   30   55 1
    59   30   56 1
@<TRIPOS>MOLECULE
ZINC39627939
   61    63     0     0     0
SMALL
USER_CHARGES

@<TRIPOS>ATOM
      1 C1          0.2301    1.5462   -0.1000 C.3       1 <0>        -0.1437
      2 C2          0.2129    0.0163   -0.0828 C.3       1 <0>        -0.1398
      3 C3          0.8168   -0.5073   -1.3603 C.2       1 <0>         0.5379
      4 O1          1.2211    0.2669   -2.2018 O.2       1 <0>        -0.5202
      5 N1          0.9076   -1.8359   -1.5678 N.am      1 <0>        -0.6284
      6 C4          0.4666   -2.9278   -0.6683 C.3       1 <0>         0.1102
      7 C5         -0.1375   -3.9914   -1.6124 C.3       1 <0>        -0.1122
      8 H1         -1.2175   -3.8638   -1.6861 H         1 <0>         0.1156
      9 C6          0.5269   -3.7296   -2.9744 C.3       1 <0>        -0.0730
     10 C7          1.4654   -2.5349   -2.7504 C.3       1 <0>         0.1042
     11 C8          1.3237   -4.9529   -3.4175 C.3       1 <0>        -0.1437
     12 C9          1.9268   -4.6899   -4.8003 C.3       1 <0>        -0.0094
     13 N2          0.8521   -4.4076   -5.7594 N.4       1 <0>        -0.5041
     14 C10         0.1497   -3.1769   -5.3762 C.3       1 <0>        -0.0134
     15 C11        -0.5286   -3.3759   -4.0178 C.3       1 <0>        -0.1327
     16 C12         0.1939   -5.3772   -1.1219 C.2       1 <0>         0.5287
     17 O2          1.2265   -5.5758   -0.5175 O.2       1 <0>        -0.5043
     18 N3         -0.6571   -6.3960   -1.3550 N.am      1 <0>        -0.7322
     19 C13        -0.3350   -7.7433   -0.8782 C.3       1 <0>         0.0911
     20 C14        -1.4577   -8.7054   -1.2713 C.3       1 <0>        -0.0214
     21 N4         -1.1347  -10.0564   -0.7932 N.4       1 <0>        -0.3804
     22 C15         0.0654  -10.5441   -1.4834 C.3       1 <0>        -0.0124
     23 C16         0.4534  -11.9174   -0.9311 C.3       1 <0>        -0.1475
     24 C17        -0.7014  -12.8974   -1.1577 C.3       1 <0>        -0.1406
     25 C18        -1.9662  -12.3422   -0.4966 C.3       1 <0>        -0.1482
     26 C19        -2.2645  -10.9531   -1.0649 C.3       1 <0>        -0.0052
     27 H2          1.2585    1.8970   -0.1863 H         1 <0>         0.0656
     28 H3         -0.3493    1.9064   -0.9501 H         1 <0>         0.0638
     29 H4         -0.2067    1.9249    0.8240 H         1 <0>         0.0703
     30 H5          0.7923   -0.3439    0.7673 H         1 <0>         0.0979
     31 H6         -0.8154   -0.3345    0.0035 H         1 <0>         0.0949
     32 H7          1.3174   -3.3403   -0.1259 H         1 <0>         0.0994
     33 H8         -0.2892   -2.5646    0.0281 H         1 <0>         0.0973
     34 H9          1.4573   -1.8775   -3.6198 H         1 <0>         0.0915
     35 H10         2.4778   -2.8824   -2.5445 H         1 <0>         0.0843
     36 H11         2.1235   -5.1449   -2.7023 H         1 <0>         0.1253
     37 H12         0.6635   -5.8188   -3.4671 H         1 <0>         0.0896
     38 H13         2.5994   -3.8339   -4.7463 H         1 <0>         0.1367
     39 H14         2.4832   -5.5685   -5.1268 H         1 <0>         0.1397
     40 H15         1.2468   -4.2949   -6.6812 H         1 <0>         0.4380
     41 H16         0.8646   -2.3569   -5.3084 H         1 <0>         0.1370
     42 H17        -0.6040   -2.9401   -6.1272 H         1 <0>         0.1431
     43 H18        -1.2554   -4.1852   -4.0890 H         1 <0>         0.0937
     44 H19        -1.0351   -2.4560   -3.7257 H         1 <0>         0.1204
     45 H20        -1.4829   -6.2372   -1.8384 H         1 <0>         0.4086
     46 H21         0.6011   -8.0738   -1.3284 H         1 <0>         0.0925
     47 H22        -0.2314   -7.7296    0.2068 H         1 <0>         0.0954
     48 H23        -2.3938   -8.3748   -0.8211 H         1 <0>         0.1399
     49 H24        -1.5613   -8.7191   -2.3563 H         1 <0>         0.1343
     50 H25        -0.1382  -10.6266   -2.5510 H         1 <0>         0.1289
     51 H26         0.8855   -9.8439   -1.3239 H         1 <0>         0.1295
     52 H27         1.3436  -12.2785   -1.4461 H         1 <0>         0.1146
     53 H28         0.6575  -11.8360    0.1365 H         1 <0>         0.0908
     54 H29        -0.8723  -13.0183   -2.2274 H         1 <0>         0.0822
     55 H30        -0.4526  -13.8622   -0.7158 H         1 <0>         0.0982
     56 H31        -2.8055  -13.0070   -0.7009 H         1 <0>         0.1165
     57 H32        -1.8123  -12.2696    0.5801 H         1 <0>         0.0906
     58 H33        -3.1646  -10.5550   -0.5965 H         1 <0>         0.1328
     59 H34        -2.4185  -11.0269   -2.1415 H         1 <0>         0.1295
     60 H35         0.1996   -5.1771   -5.7676 H         1 <0>         0.4246
     61 H36        -0.9606  -10.0278    0.2003 H         1 <0>         0.4275
@<TRIPOS>BOND
     1    1    2 1
     2    1   27 1
     3    1   28 1
     4    1   29 1
     5    2    3 1
     6    2   30 1
     7    2   31 1
     8    3    4 2
     9    3    5 am
    10    5   10 1
    11    5    6 1
    12    6    7 1
    13    6   32 1
    14    6   33 1
    15    7    8 1
    16    7    9 1
    17    7   16 1
    18    9   15 1
    19    9   10 1
    20    9   11 1
    21   10   34 1
    22   10   35 1
    23   11   12 1
    24   11   36 1
    25   11   37 1
    26   12   13 1
    27   12   38 1
    28   12   39 1
    29   13   14 1
    30   13   40 1
    31   13   60 1
    32   14   15 1
    33   14   41 1
    34   14   42 1
    35   15   43 1
    36   15   44 1
    37   16   17 2
    38   16   18 am
    39   18   19 1
    40   18   45 1
    41   19   20 1
    42   19   46 1
    43   19   47 1
    44   20   21 1
    45   20   48 1
    46   20   49 1
    47   21   26 1
    48   21   22 1
    49   21   61 1
    50   22   23 1
    51   22   50 1
    52   22   51 1
    53   23   24 1
    54   23   52 1
    55   23   53 1
    56   24   25 1
    57   24   54 1
    58   24   55 1
    59   25   26 1
    60   25   56 1
    61   25   57 1
    62   26   58 1
    63   26   59 1
@<TRIPOS>MOLECULE
ZINC39681962
   68    71     0     0     0
SMALL
USER_CHARGES

@<TRIPOS>ATOM
      1 C1         -0.2990    1.5973   -0.2869 C.3       1 <0>        -0.1576
      2 C2         -0.2298    0.0689   -0.2735 C.3       1 <0>        -0.1196
      3 C3         -1.6435   -0.5047   -0.1572 C.3       1 <0>        -0.0795
      4 H1         -2.2648   -0.1047   -0.9585 H         1 <0>         0.0809
      5 C4         -2.2424   -0.1148    1.1956 C.3       1 <0>        -0.1549
      6 C5         -1.5860   -2.0295   -0.2691 C.3       1 <0>        -0.1326
      7 C6         -2.9865   -2.5857   -0.2779 C.2       1 <0>         0.5398
      8 O1         -3.9371   -1.8363   -0.2022 O.2       1 <0>        -0.5145
      9 N1         -3.1828   -3.9159   -0.3700 N.am      1 <0>        -0.6283
     10 C7         -2.1567   -4.9811   -0.4637 C.3       1 <0>         0.1107
     11 C8         -2.7049   -6.1293    0.4129 C.3       1 <0>        -0.1137
     12 H2         -2.2885   -6.0711    1.4185 H         1 <0>         0.1136
     13 C9         -4.2257   -5.9037    0.4492 C.3       1 <0>        -0.0721
     14 C10        -4.4737   -4.6445   -0.3938 C.3       1 <0>         0.1044
     15 C11        -4.6914   -5.6712    1.8833 C.3       1 <0>        -0.1326
     16 C12        -6.2136   -5.5062    1.9003 C.3       1 <0>        -0.0132
     17 N2         -6.8443   -6.7117    1.3490 N.4       1 <0>        -0.5043
     18 C13        -6.4641   -6.8767   -0.0591 C.3       1 <0>        -0.0093
     19 C14        -4.9524   -7.0993   -0.1590 C.3       1 <0>        -0.1445
     20 C15        -2.3848   -7.4637   -0.2100 C.2       1 <0>         0.5256
     21 O2         -2.3046   -7.5665   -1.4158 O.2       1 <0>        -0.5041
     22 N3         -2.1876   -8.5429    0.5729 N.am      1 <0>        -0.7325
     23 C16        -1.8764   -9.8401   -0.0326 C.3       1 <0>         0.1351
     24 H3         -2.4127   -9.9408   -0.9762 H         1 <0>         0.1275
     25 C17        -0.3704   -9.9399   -0.2856 C.3       1 <0>        -0.0229
     26 N4          0.1892  -11.0710    0.4583 N.4       1 <0>        -0.3757
     27 C18        -0.0024  -10.8861    1.8988 C.3       1 <0>        -0.0103
     28 C19        -1.4961  -10.8176    2.2243 C.3       1 <0>        -0.1404
     29 C20        -2.2968  -10.9666    0.9206 C.3       1 <0>        -0.1060
     30 C21        -1.9253  -12.3090    0.2769 C.3       1 <0>        -0.1349
     31 C22        -0.4149  -12.3295    0.0148 C.3       1 <0>        -0.0117
     32 H4          0.7081    2.0059   -0.3697 H         1 <0>         0.0583
     33 H5         -0.8958    1.9265   -1.1375 H         1 <0>         0.0564
     34 H6         -0.7587    1.9483    0.6371 H         1 <0>         0.0589
     35 H7          0.2299   -0.2821   -1.1974 H         1 <0>         0.0625
     36 H8          0.3670   -0.2603    0.5771 H         1 <0>         0.0623
     37 H9         -2.2833    0.9715    1.2753 H         1 <0>         0.0624
     38 H10        -3.2495   -0.5234    1.2785 H         1 <0>         0.0672
     39 H11        -1.6210   -0.5147    1.9969 H         1 <0>         0.0475
     40 H12        -1.0789   -2.3071   -1.1932 H         1 <0>         0.0969
     41 H13        -1.0390   -2.4358    0.5817 H         1 <0>         0.0941
     42 H14        -2.0451   -5.3114   -1.4965 H         1 <0>         0.0986
     43 H15        -1.2034   -4.6259   -0.0723 H         1 <0>         0.0951
     44 H16        -5.2613   -4.0377    0.0529 H         1 <0>         0.0917
     45 H17        -4.7369   -4.9190   -1.4153 H         1 <0>         0.0841
     46 H18        -4.4110   -6.5252    2.4999 H         1 <0>         0.0933
     47 H19        -4.2231   -4.7687    2.2761 H         1 <0>         0.1197
     48 H20        -6.5513   -5.3563    2.9258 H         1 <0>         0.1429
     49 H21        -6.4920   -4.6424    1.2966 H         1 <0>         0.1367
     50 H22        -6.5418   -7.5182    1.8744 H         1 <0>         0.4254
     51 H23        -6.9862   -7.7371   -0.4778 H         1 <0>         0.1407
     52 H24        -6.7367   -5.9804   -0.6163 H         1 <0>         0.1362
     53 H25        -4.6683   -7.2037   -1.2061 H         1 <0>         0.1252
     54 H26        -4.6812   -8.0047    0.3841 H         1 <0>         0.0911
     55 H27        -2.2517   -8.4607    1.5373 H         1 <0>         0.4066
     56 H28        -0.1914  -10.0838   -1.3511 H         1 <0>         0.1416
     57 H29         0.1128   -9.0186    0.0396 H         1 <0>         0.1332
     58 H30         0.4463  -11.7232    2.4336 H         1 <0>         0.1367
     59 H31         0.4788   -9.9595    2.2116 H         1 <0>         0.1302
     60 H32        -1.7585  -11.6252    2.9077 H         1 <0>         0.1098
     61 H33        -1.7258   -9.8571    2.6855 H         1 <0>         0.0931
     62 H34        -3.3666  -10.9111    1.1222 H         1 <0>         0.1211
     63 H35        -2.1915  -13.1233    0.9508 H         1 <0>         0.1100
     64 H36        -2.4605  -12.4226   -0.6659 H         1 <0>         0.1054
     65 H37        -0.2361  -12.4601   -1.0525 H         1 <0>         0.1352
     66 H38         0.0361  -13.1589    0.5595 H         1 <0>         0.1366
     67 H39         1.1811  -11.1121    0.2783 H         1 <0>         0.4327
     68 H40        -7.8474   -6.6261    1.4173 H         1 <0>         0.4383
@<TRIPOS>BOND
     1    1    2 1
     2    1   32 1
     3    1   33 1
     4    1   34 1
     5    2    3 1
     6    2   35 1
     7    2   36 1
     8    3    4 1
     9    3    5 1
    10    3    6 1
    11    5   37 1
    12    5   38 1
    13    5   39 1
    14    6    7 1
    15    6   40 1
    16    6   41 1
    17    7    8 2
    18    7    9 am
    19    9   14 1
    20    9   10 1
    21   10   11 1
    22   10   42 1
    23   10   43 1
    24   11   12 1
    25   11   13 1
    26   11   20 1
    27   13   19 1
    28   13   14 1
    29   13   15 1
    30   14   44 1
    31   14   45 1
    32   15   16 1
    33   15   46 1
    34   15   47 1
    35   16   17 1
    36   16   48 1
    37   16   49 1
    38   17   18 1
    39   17   50 1
    40   17   68 1
    41   18   19 1
    42   18   51 1
    43   18   52 1
    44   19   53 1
    45   19   54 1
    46   20   21 2
    47   20   22 am
    48   22   23 1
    49   22   55 1
    50   23   24 1
    51   23   29 1
    52   23   25 1
    53   25   26 1
    54   25   56 1
    55   25   57 1
    56   26   31 1
    57   26   27 1
    58   26   67 1
    59   27   28 1
    60   27   58 1
    61   27   59 1
    62   28   29 1
    63   28   60 1
    64   28   61 1
    65   29   30 1
    66   29   62 1
    67   30   31 1
    68   30   63 1
    69   30   64 1
    70   31   65 1
    71   31   66 1
@<TRIPOS>MOLECULE
ZINC39695435
   64    66     0     0     0
SMALL
USER_CHARGES

@<TRIPOS>ATOM
      1 C1         -3.3161   -4.9386   -0.8162 C.3       1 <0>        -0.1914
      2 C2         -2.6694   -5.3966    0.4926 C.3       1 <0>        -0.0095
      3 N1         -1.4133   -4.6639    0.7008 N.4       1 <0>        -0.3965
      4 C3         -0.4388   -5.0396   -0.3456 C.3       1 <0>        -0.0120
      5 C4          0.9328   -5.0439    0.3743 C.3       1 <0>        -0.1443
      6 C5          0.5535   -5.6109    1.7677 C.3       1 <0>        -0.1342
      7 C6         -0.8473   -5.0133    2.0167 C.3       1 <0>         0.0132
      8 H1         -1.4822   -5.7494    2.5098 H         1 <0>         0.1451
      9 C7         -0.7310   -3.7578    2.8833 C.3       1 <0>         0.0954
     10 N2         -2.0382   -3.1022    2.9710 N.am      1 <0>        -0.7559
     11 C8         -2.1772   -1.9694    3.6879 C.2       1 <0>         0.5266
     12 O1         -1.2201   -1.4928    4.2604 O.2       1 <0>        -0.4912
     13 C9         -3.5219   -1.2951    3.7782 C.3       1 <0>        -0.1144
     14 H2         -4.1050   -1.4908    2.8783 H         1 <0>         0.1126
     15 C10        -3.3480    0.2261    3.9862 C.3       1 <0>         0.1092
     16 N3         -4.4391    0.6041    4.9149 N.am      1 <0>        -0.6257
     17 C11        -4.5060   -0.5182    5.8814 C.3       1 <0>         0.1043
     18 C12        -4.2815   -1.7799    5.0245 C.3       1 <0>        -0.0741
     19 C13        -3.4423   -2.7963    5.7927 C.3       1 <0>        -0.1448
     20 C14        -4.2416   -3.3072    6.9947 C.3       1 <0>        -0.0096
     21 N4         -5.4889   -3.9249    6.5286 N.4       1 <0>        -0.5040
     22 C15        -6.3315   -2.9179    5.8722 C.3       1 <0>        -0.0136
     23 C16        -5.6206   -2.3906    4.6227 C.3       1 <0>        -0.1309
     24 C17        -5.1993    1.7167    4.8870 C.2       1 <0>         0.5430
     25 O2         -6.0603    1.8840    5.7247 O.2       1 <0>        -0.5180
     26 C18        -4.9796    2.7527    3.8150 C.3       1 <0>        -0.1076
     27 C19        -5.9662    3.9057    4.0101 C.3       1 <0>        -0.1398
     28 C20        -3.5482    3.2854    3.9062 C.3       1 <0>        -0.1540
     29 H3         -2.6376   -5.1374   -1.6458 H         1 <0>         0.0860
     30 H4         -4.2481   -5.4822   -0.9707 H         1 <0>         0.1094
     31 H5         -3.5232   -3.8697   -0.7645 H         1 <0>         0.0797
     32 H6         -3.3478   -5.1977    1.3222 H         1 <0>         0.1189
     33 H7         -2.4622   -6.4655    0.4409 H         1 <0>         0.1352
     34 H8         -0.6653   -6.0315   -0.7366 H         1 <0>         0.1378
     35 H9         -0.4429   -4.3038   -1.1498 H         1 <0>         0.1383
     36 H10         1.6390   -5.6996   -0.1350 H         1 <0>         0.1247
     37 H11         1.3322   -4.0334    0.4596 H         1 <0>         0.1013
     38 H12         0.5089   -6.6997    1.7416 H         1 <0>         0.1094
     39 H13         1.2580   -5.2711    2.5269 H         1 <0>         0.1193
     40 H14        -0.3962   -4.0358    3.8826 H         1 <0>         0.1178
     41 H15        -0.0105   -3.0731    2.4361 H         1 <0>         0.1023
     42 H16        -2.8037   -3.4835    2.5132 H         1 <0>         0.3945
     43 H17        -2.3772    0.4400    4.4333 H         1 <0>         0.1012
     44 H18        -3.4555    0.7540    3.0386 H         1 <0>         0.0983
     45 H19        -3.7208   -0.4218    6.6312 H         1 <0>         0.0857
     46 H20        -5.4859   -0.5523    6.3576 H         1 <0>         0.0920
     47 H21        -3.1945   -3.6323    5.1386 H         1 <0>         0.0899
     48 H22        -2.5249   -2.3217    6.1409 H         1 <0>         0.1257
     49 H23        -3.6507   -4.0461    7.5361 H         1 <0>         0.1415
     50 H24        -4.4747   -2.4732    7.6567 H         1 <0>         0.1372
     51 H25        -5.2736   -4.6607    5.8726 H         1 <0>         0.4240
     52 H26        -7.2813   -3.3698    5.5862 H         1 <0>         0.1430
     53 H27        -6.5148   -2.0932    6.5609 H         1 <0>         0.1375
     54 H28        -6.2390   -1.6300    4.1460 H         1 <0>         0.1203
     55 H29        -5.4516   -3.2119    3.9263 H         1 <0>         0.0907
     56 H30        -5.1375    2.3013    2.8355 H         1 <0>         0.0972
     57 H31        -5.8083    4.3572    4.9896 H         1 <0>         0.0667
     58 H32        -5.8073    4.6551    3.2347 H         1 <0>         0.0707
     59 H33        -6.9859    3.5263    3.9451 H         1 <0>         0.0641
     60 H34        -3.3903    3.7368    4.8857 H         1 <0>         0.0661
     61 H35        -2.8453    2.4639    3.7672 H         1 <0>         0.0591
     62 H36        -3.3893    4.0348    3.1308 H         1 <0>         0.0770
     63 H37        -5.9846   -4.3146    7.3163 H         1 <0>         0.4388
     64 H38        -1.5876   -3.6709    0.6590 H         1 <0>         0.4208
@<TRIPOS>BOND
     1    1    2 1
     2    1   29 1
     3    1   30 1
     4    1   31 1
     5    2    3 1
     6    2   32 1
     7    2   33 1
     8    3    7 1
     9    3    4 1
    10    3   64 1
    11    4    5 1
    12    4   34 1
    13    4   35 1
    14    5    6 1
    15    5   36 1
    16    5   37 1
    17    6    7 1
    18    6   38 1
    19    6   39 1
    20    7    8 1
    21    7    9 1
    22    9   10 1
    23    9   40 1
    24    9   41 1
    25   10   11 am
    26   10   42 1
    27   11   12 2
    28   11   13 1
    29   13   14 1
    30   13   18 1
    31   13   15 1
    32   15   16 1
    33   15   43 1
    34   15   44 1
    35   16   17 1
    36   16   24 am
    37   17   18 1
    38   17   45 1
    39   17   46 1
    40   18   23 1
    41   18   19 1
    42   19   20 1
    43   19   47 1
    44   19   48 1
    45   20   21 1
    46   20   49 1
    47   20   50 1
    48   21   22 1
    49   21   51 1
    50   21   63 1
    51   22   23 1
    52   22   52 1
    53   22   53 1
    54   23   54 1
    55   23   55 1
    56   24   25 2
    57   24   26 1
    58   26   27 1
    59   26   28 1
    60   26   56 1
    61   27   57 1
    62   27   58 1
    63   27   59 1
    64   28   60 1
    65   28   61 1
    66   28   62 1
@<TRIPOS>MOLECULE
ZINC63332296
   60    63     0     0     0
SMALL
USER_CHARGES

@<TRIPOS>ATOM
      1 C1         -0.8715    1.2934    0.3884 C.3       1 <0>        -0.1266
      2 C2         -0.8035   -0.2121    0.3821 C.2       1 <0>        -0.0653
      3 C3         -0.8648   -0.9096   -0.8357 C.2       1 <0>        -0.0103
      4 C4         -0.8027   -2.2684   -0.8377 C.2       1 <0>        -0.1219
      5 C5         -0.6775   -2.9556    0.3863 C.cat     1 <0>         0.3074
      6 N1         -0.5966   -4.2453    0.6818 N.pl3     1 <0>        -0.5018
      7 C6         -0.4893   -4.3858    2.0051 C.2       1 <0>         0.0645
      8 C7         -0.5017   -3.1594    2.5717 C.2       1 <0>         0.0065
      9 N2         -0.6203   -2.2473    1.5586 N.pl3     1 <0>        -0.3238
     10 C8         -0.6785   -0.8837    1.5459 C.2       1 <0>         0.0728
     11 C9         -0.3738   -5.6943    2.7438 C.3       1 <0>         0.2000
     12 N3          1.0291   -6.1154    2.7746 N.am      1 <0>        -0.7493
     13 C10         1.3742   -7.2654    3.3869 C.2       1 <0>         0.7117
     14 O1          0.5212   -7.9533    3.9137 O.2       1 <0>        -0.5688
     15 N4          2.6647   -7.6528    3.4153 N.am      1 <0>        -0.7386
     16 C11         3.0398   -8.9028    4.0808 C.3       1 <0>         0.1542
     17 C12         3.2471   -8.6447    5.5760 C.3       1 <0>        -0.1599
     18 C13         3.7155   -9.9357    6.2508 C.3       1 <0>        -0.0082
     19 N5          4.9798  -10.3758    5.6489 N.4       1 <0>        -0.3856
     20 C14         4.7723  -10.6939    4.2311 C.3       1 <0>        -0.0023
     21 C15         4.3446   -9.4321    3.4786 C.3       1 <0>        -0.1561
     22 C16         5.4650  -11.5712    6.3515 C.3       1 <0>        -0.0051
     23 C17         5.8364  -11.2022    7.7891 C.3       1 <0>        -0.1200
     24 C18         7.0565  -10.2582    7.7940 C.3       1 <0>        -0.1403
     25 C19         7.8747  -10.7013    9.0322 C.3       1 <0>        -0.1248
     26 C20         7.7121  -12.2416    9.0160 C.3       1 <0>        -0.1306
     27 C21         6.2532  -12.4632    8.5661 C.3       1 <0>        -0.1173
     28 H1          0.1354    1.7029    0.3068 H         1 <0>         0.0991
     29 H2         -1.4715    1.6335   -0.4556 H         1 <0>         0.0955
     30 H3         -1.3275    1.6326    1.3185 H         1 <0>         0.0896
     31 H4         -0.9611   -0.3696   -1.7660 H         1 <0>         0.1788
     32 H5         -0.8492   -2.8152   -1.7679 H         1 <0>         0.1829
     33 H6         -0.4316   -2.9399    3.6269 H         1 <0>         0.2293
     34 H7         -0.6282   -0.3374    2.4761 H         1 <0>         0.2023
     35 H8         -0.7381   -5.5693    3.7634 H         1 <0>         0.1203
     36 H9         -0.9696   -6.4524    2.2354 H         1 <0>         0.1059
     37 H10         1.7096   -5.5665    2.3544 H         1 <0>         0.4021
     38 H11         3.3452   -7.1039    2.9951 H         1 <0>         0.4034
     39 H12         2.2493   -9.6405    3.9432 H         1 <0>         0.1097
     40 H13         4.0013   -7.8694    5.7105 H         1 <0>         0.0898
     41 H14         2.3073   -8.3206    6.0231 H         1 <0>         0.1178
     42 H15         3.8638   -9.7555    7.3155 H         1 <0>         0.1369
     43 H16         2.9604  -10.7102    6.1160 H         1 <0>         0.1344
     44 H17         5.7009  -11.0735    3.8047 H         1 <0>         0.1387
     45 H18         3.9947  -11.4523    4.1393 H         1 <0>         0.1349
     46 H19         4.1893   -9.6708    2.4264 H         1 <0>         0.1202
     47 H20         5.1216   -8.6731    3.5695 H         1 <0>         0.0945
     48 H21         4.6820  -12.3295    6.3618 H         1 <0>         0.1328
     49 H22         6.3433  -11.9628    5.8384 H         1 <0>         0.1340
     50 H23         4.9905  -10.7227    8.2817 H         1 <0>         0.0958
     51 H24         7.6421  -10.3870    6.8837 H         1 <0>         0.0733
     52 H25         6.7364   -9.2216    7.8993 H         1 <0>         0.0729
     53 H26         8.9227  -10.4223    8.9228 H         1 <0>         0.0778
     54 H27         7.4545  -10.2781    9.9446 H         1 <0>         0.0756
     55 H28         8.4036  -12.6907    8.3031 H         1 <0>         0.0721
     56 H29         7.8704  -12.6524   10.0131 H         1 <0>         0.0784
     57 H30         5.6101  -12.5953    9.4362 H         1 <0>         0.0817
     58 H31         6.1909  -13.3381    7.9190 H         1 <0>         0.0753
     59 H32         5.6644   -9.6391    5.7306 H         1 <0>         0.4214
     60 H33        -0.6127   -4.9714    0.0388 H         1 <0>         0.4624
@<TRIPOS>BOND
     1    1    2 1
     2    1   28 1
     3    1   29 1
     4    1   30 1
     5    2   10 2
     6    2    3 1
     7    3    4 2
     8    3   31 1
     9    4    5 1
    10    4   32 1
    11    5    9 1
    12    5    6 2
    13    6    7 1
    14    6   60 1
    15    7    8 2
    16    7   11 1
    17    8    9 1
    18    8   33 1
    19    9   10 1
    20   10   34 1
    21   11   12 1
    22   11   35 1
    23   11   36 1
    24   12   13 am
    25   12   37 1
    26   13   14 2
    27   13   15 am
    28   15   16 1
    29   15   38 1
    30   16   21 1
    31   16   17 1
    32   16   39 1
    33   17   18 1
    34   17   40 1
    35   17   41 1
    36   18   19 1
    37   18   42 1
    38   18   43 1
    39   19   20 1
    40   19   22 1
    41   19   59 1
    42   20   21 1
    43   20   44 1
    44   20   45 1
    45   21   46 1
    46   21   47 1
    47   22   23 1
    48   22   48 1
    49   22   49 1
    50   23   27 1
    51   23   24 1
    52   23   50 1
    53   24   25 1
    54   24   51 1
    55   24   52 1
    56   25   26 1
    57   25   53 1
    58   25   54 1
    59   26   27 1
    60   26   55 1
    61   26   56 1
    62   27   57 1
    63   27   58 1
@<TRIPOS>MOLECULE
ZINC67560440
   66    69     0     0     0
SMALL
USER_CHARGES

@<TRIPOS>ATOM
      1 C1         -0.0821    1.2088    0.0608 C.3       1 <0>        -0.1451
      2 C2         -0.1621   -0.3176   -0.0057 C.3       1 <0>        -0.1033
      3 C3          0.5188   -0.9181    1.2259 C.3       1 <0>        -0.1509
      4 C4         -1.6292   -0.7504   -0.0391 C.3       1 <0>         0.2427
      5 H1         -2.1323   -0.3991    0.8617 H         1 <0>         0.1137
      6 C5         -1.7080   -2.2540   -0.1045 C.2       1 <0>         0.1831
      7 N1         -1.4610   -3.0000   -1.1496 N.2       1 <0>        -0.2698
      8 N2         -1.6173   -4.2418   -0.8442 N.2       1 <0>        -0.2442
      9 C6         -1.9647   -4.3415    0.4048 C.2       1 <0>         0.1610
     10 N3         -2.0410   -3.0837    0.9057 N.pl3     1 <0>        -0.4764
     11 C7         -2.4322   -2.7298    2.2706 C.3       1 <0>         0.0774
     12 C8         -2.0771   -3.8886    3.2074 C.3       1 <0>        -0.0324
     13 N4         -3.2061   -4.8179    3.3037 N.4       1 <0>        -0.5066
     14 C9         -3.5132   -5.4126    2.0025 C.3       1 <0>        -0.0158
     15 C10        -2.2306   -5.5975    1.1948 C.3       1 <0>        -0.0582
     16 N5         -2.2812   -0.1755   -1.2183 N.am      1 <0>        -0.7212
     17 C11        -2.7851    1.0735   -1.1680 C.2       1 <0>         0.5173
     18 O1         -2.6987    1.7215   -0.1464 O.2       1 <0>        -0.4614
     19 C12        -3.4558    1.6650   -2.3810 C.3       1 <0>         0.0482
     20 C13        -3.4913    3.1891   -2.2518 C.3       1 <0>        -0.1211
     21 C14        -4.2750    3.5764   -0.9961 C.3       1 <0>        -0.1407
     22 C15        -5.7040    3.0400   -1.1011 C.3       1 <0>        -0.1285
     23 C16        -5.6685    1.5158   -1.2303 C.3       1 <0>        -0.1164
     24 C17        -4.8848    1.1286   -2.4860 C.3       1 <0>        -0.1312
     25 N6         -2.7033    1.2931   -3.5866 N.4       1 <0>        -0.3922
     26 C18        -3.2921    1.9511   -4.7810 C.3       1 <0>        -0.0157
     27 C19        -2.1268    1.9407   -5.8021 C.3       1 <0>        -0.1427
     28 C20        -0.8883    2.2063   -4.9158 C.3       1 <0>        -0.1401
     29 C21        -1.3141    1.7923   -3.4950 C.3       1 <0>        -0.0256
     30 H2          0.9631    1.5172    0.0846 H         1 <0>         0.0695
     31 H3         -0.5672    1.6366   -0.8166 H         1 <0>         0.0464
     32 H4         -0.5852    1.5602    0.9616 H         1 <0>         0.0724
     33 H5          0.3410   -0.6690   -0.9065 H         1 <0>         0.0890
     34 H6          0.0157   -0.5667    2.1267 H         1 <0>         0.0601
     35 H7          0.4618   -2.0056    1.1785 H         1 <0>         0.0486
     36 H8          1.5640   -0.6097    1.2497 H         1 <0>         0.0793
     37 H9         -1.8981   -1.8322    2.5820 H         1 <0>         0.1429
     38 H10        -3.5063   -2.5478    2.3065 H         1 <0>         0.1155
     39 H11        -1.2067   -4.4159    2.8170 H         1 <0>         0.1497
     40 H12        -1.8463   -3.4957    4.1976 H         1 <0>         0.1682
     41 H13        -2.9758   -5.5517    3.9568 H         1 <0>         0.4436
     42 H14        -3.9900   -6.3815    2.1507 H         1 <0>         0.1608
     43 H15        -4.1909   -4.7569    1.4557 H         1 <0>         0.1325
     44 H16        -2.3399   -6.4414    0.5136 H         1 <0>         0.1535
     45 H17        -1.4018   -5.7816    1.8783 H         1 <0>         0.1181
     46 H18        -2.3503   -0.6937   -2.0354 H         1 <0>         0.4040
     47 H19        -2.4732    3.5712   -2.1770 H         1 <0>         0.0925
     48 H20        -3.9764    3.6169   -3.1292 H         1 <0>         0.0990
     49 H21        -3.7899    3.1486   -0.1187 H         1 <0>         0.1143
     50 H22        -4.3003    4.6622   -0.9041 H         1 <0>         0.0849
     51 H23        -6.2623    3.3159   -0.2065 H         1 <0>         0.0812
     52 H24        -6.1891    3.4677   -1.9785 H         1 <0>         0.0709
     53 H25        -5.1834    1.0881   -0.3529 H         1 <0>         0.0679
     54 H26        -6.6865    1.1337   -1.3051 H         1 <0>         0.0885
     55 H27        -5.3699    1.5563   -3.3634 H         1 <0>         0.1058
     56 H28        -4.8595    0.0428   -2.5780 H         1 <0>         0.0862
     57 H29        -4.1390    1.3776   -5.1579 H         1 <0>         0.1402
     58 H30        -3.5911    2.9733   -4.5490 H         1 <0>         0.1438
     59 H31        -2.0505    0.9692   -6.2904 H         1 <0>         0.1011
     60 H32        -2.2518    2.7348   -6.5382 H         1 <0>         0.1225
     61 H33        -0.0466    1.5998   -5.2503 H         1 <0>         0.1092
     62 H34        -0.6262    3.2641   -4.9391 H         1 <0>         0.1081
     63 H35        -1.2724    2.6541   -2.8289 H         1 <0>         0.1368
     64 H36        -0.6594    1.0027   -3.1264 H         1 <0>         0.1316
     65 H37        -4.0168   -4.3198    3.6395 H         1 <0>         0.4373
     66 H38        -2.7059    0.2909   -3.7036 H         1 <0>         0.4194
@<TRIPOS>BOND
     1    1    2 1
     2    1   30 1
     3    1   31 1
     4    1   32 1
     5    2    3 1
     6    2    4 1
     7    2   33 1
     8    3   34 1
     9    3   35 1
    10    3   36 1
    11    4    5 1
    12    4    6 1
    13    4   16 1
    14    6   10 1
    15    6    7 2
    16    7    8 1
    17    8    9 2
    18    9   15 1
    19    9   10 1
    20   10   11 1
    21   11   12 1
    22   11   37 1
    23   11   38 1
    24   12   13 1
    25   12   39 1
    26   12   40 1
    27   13   14 1
    28   13   41 1
    29   13   65 1
    30   14   15 1
    31   14   42 1
    32   14   43 1
    33   15   44 1
    34   15   45 1
    35   16   17 am
    36   16   46 1
    37   17   18 2
    38   17   19 1
    39   19   24 1
    40   19   20 1
    41   19   25 1
    42   20   21 1
    43   20   47 1
    44   20   48 1
    45   21   22 1
    46   21   49 1
    47   21   50 1
    48   22   23 1
    49   22   51 1
    50   22   52 1
    51   23   24 1
    52   23   53 1
    53   23   54 1
    54   24   55 1
    55   24   56 1
    56   25   29 1
    57   25   26 1
    58   25   66 1
    59   26   27 1
    60   26   57 1
    61   26   58 1
    62   27   28 1
    63   27   59 1
    64   27   60 1
    65   28   29 1
    66   28   61 1
    67   28   62 1
    68   29   63 1
    69   29   64 1
@<TRIPOS>MOLECULE
ZINC23334536
   52    54     0     0     0
SMALL
USER_CHARGES
(2R)-2-[4-[(5-chloro-2-thienyl)methyl]piperazin-1-yl]-N-(4-sulfamoylphenyl)propanamide
@<TRIPOS>ATOM
      1 C1          5.5443   -0.7401   -5.9548 C.3       1 <0>        -0.1844
      2 C2          5.7267   -1.9730   -5.0674 C.3       1 <0>         0.0161
      3 H1          6.7934   -2.1911   -4.9108 H         1 <0>         0.1675
      4 C3          5.0540   -3.1585   -5.7101 C.2       1 <0>         0.5102
      5 O1          4.1608   -3.7377   -5.1290 O.2       1 <0>        -0.5073
      6 N1          5.4450   -3.5752   -6.9308 N.am      1 <0>        -0.6621
      7 C4          4.8985   -4.7400   -7.4807 C.ar      1 <0>         0.1883
      8 C5          4.5484   -5.8010   -6.6559 C.ar      1 <0>        -0.1409
      9 C6          4.0030   -6.9468   -7.2012 C.ar      1 <0>        -0.0032
     10 C7          3.8173   -7.0431   -8.5681 C.ar      1 <0>        -0.6671
     11 C8          4.1705   -5.9907   -9.3927 C.ar      1 <0>         0.0111
     12 C9          4.7102   -4.8397   -8.8530 C.ar      1 <0>        -0.1549
     13 S1          3.1285   -8.5096   -9.2605 S.o2      1 <0>         2.6339
     14 O2          2.3773   -9.1325   -8.2275 O.2       1 <0>        -0.9814
     15 O3          2.5510   -8.1389  -10.5048 O.2       1 <0>        -0.9458
     16 N2          4.3889   -9.5259   -9.6079 N.pl3     1 <0>        -1.1612
     17 N3          5.1244   -1.7224   -3.7512 N.4       1 <0>        -0.3894
     18 C10         5.8338   -0.6475   -3.0434 C.3       1 <0>        -0.0012
     19 C11         5.2279   -0.4719   -1.6490 C.3       1 <0>         0.0273
     20 N4          3.7972   -0.1607   -1.7751 N.3       1 <0>        -0.5374
     21 C12         3.0877   -1.2356   -2.4829 C.3       1 <0>         0.0257
     22 C13         3.6937   -1.4112   -3.8773 C.3       1 <0>        -0.0171
     23 C14         3.1949    0.0899   -0.4589 C.3       1 <0>         0.1407
     24 C15         1.8040    0.6411   -0.6396 C.2       1 <0>        -0.1590
     25 C16         0.6278   -0.0251   -0.7336 C.2       1 <0>        -0.1362
     26 C17        -0.5402    0.6961   -0.8996 C.2       1 <0>        -0.1469
     27 C18        -0.4733    2.0495   -0.9633 C.2       1 <0>        -0.1118
     28 S2          1.2791    2.3411   -0.7864 S.3       1 <0>         0.1236
     29 Cl1        -1.7575    3.1991   -1.1706 Cl        1 <0>         0.0290
     30 H2          6.0353    0.1252   -5.4856 H         1 <0>         0.1015
     31 H3          4.4711   -0.5314   -6.0763 H         1 <0>         0.0923
     32 H4          5.9953   -0.9278   -6.9404 H         1 <0>         0.1094
     33 H5          6.1937   -2.9996   -7.4947 H         1 <0>         0.4503
     34 H6          4.6981   -5.7284   -5.5888 H         1 <0>         0.1421
     35 H7          3.7254   -7.7702   -6.5598 H         1 <0>         0.1493
     36 H8          4.0239   -6.0689  -10.4598 H         1 <0>         0.1537
     37 H9          4.9852   -4.0179   -9.4975 H         1 <0>         0.1425
     38 H10         3.9992  -10.4575  -10.0441 H         1 <0>         0.4193
     39 H11         4.9398   -9.7560   -8.6840 H         1 <0>         0.4090
     40 H12         6.8982   -0.9093   -2.9514 H         1 <0>         0.1397
     41 H13         5.7346    0.2912   -3.6082 H         1 <0>         0.1401
     42 H14         5.3527   -1.4021   -1.0752 H         1 <0>         0.0654
     43 H15         5.7387    0.3514   -1.1282 H         1 <0>         0.1289
     44 H16         3.1869   -2.1743   -1.9181 H         1 <0>         0.0648
     45 H17         2.0233   -0.9738   -2.5749 H         1 <0>         0.1260
     46 H18         3.5700   -0.4813   -4.4517 H         1 <0>         0.1336
     47 H19         3.1839   -2.2348   -4.3987 H         1 <0>         0.1557
     48 H20         3.1453   -0.8521    0.1070 H         1 <0>         0.0745
     49 H21         3.8087    0.8172    0.0928 H         1 <0>         0.1067
     50 H22         0.6030   -1.1034   -0.6794 H         1 <0>         0.1384
     51 H23        -1.4911    0.1898   -0.9769 H         1 <0>         0.1454
     52 H24         5.2208   -2.6425   -3.1561 H         1 <0>         0.4453
@<TRIPOS>BOND
     1    1    2 1
     2    1   30 1
     3    1   31 1
     4    1   32 1
     5    2    3 1
     6    2    4 1
     7    2   17 1
     8    4    5 2
     9    4    6 am
    10    6    7 1
    11    6   33 1
    12    7   12 ar
    13    7    8 ar
    14    8    9 ar
    15    8   34 1
    16    9   10 ar
    17    9   35 1
    18   10   11 ar
    19   10   13 1
    20   11   12 ar
    21   11   36 1
    22   12   37 1
    23   13   14 2
    24   13   15 2
    25   13   16 1
    26   16   38 1
    27   16   39 1
    28   17   22 1
    29   17   18 1
    30   17   52 1
    31   18   19 1
    32   18   40 1
    33   18   41 1
    34   19   20 1
    35   19   42 1
    36   19   43 1
    37   20   21 1
    38   20   23 1
    39   21   22 1
    40   21   44 1
    41   21   45 1
    42   22   46 1
    43   22   47 1
    44   23   24 1
    45   23   48 1
    46   23   49 1
    47   24   28 1
    48   24   25 2
    49   25   26 1
    50   25   50 1
    51   26   27 2
    52   26   51 1
    53   27   28 1
    54   27   29 1
@<TRIPOS>MOLECULE
ZINC38797079
   60    64     0     0     0
SMALL
USER_CHARGES

@<TRIPOS>ATOM
      1 C1         -0.0187    1.5258    0.0104 C.3       1 <0>        -0.1408
      2 C2          0.0021   -0.0041    0.0020 C.3       1 <0>         0.1205
      3 H1         -1.0198   -0.3833    0.0097 H         1 <0>         0.1299
      4 C3          0.7118   -0.4921   -1.2320 C.2       1 <0>        -0.0802
      5 C4          2.0285   -0.7635   -1.2153 C.2       1 <0>        -0.2413
      6 C5          2.4367   -1.2144   -2.5812 C.3       1 <0>         0.3506
      7 H2          3.0880   -2.0856   -2.5109 H         1 <0>         0.1458
      8 O1          1.2107   -1.5617   -3.2614 O.3       1 <0>        -0.3383
      9 C6          0.1983   -0.7616   -2.6132 C.3       1 <0>         0.0901
     10 H3         -0.7414   -1.3118   -2.5641 H         1 <0>         0.1297
     11 C7          0.0015    0.5541   -3.3690 C.3       1 <0>        -0.1627
     12 N1          3.1199   -0.1288   -3.2891 N.am      1 <0>        -0.7004
     13 C8          4.1351   -0.4071   -4.1307 C.2       1 <0>         0.5180
     14 O2          4.4831   -1.5562   -4.3021 O.2       1 <0>        -0.5150
     15 C9          4.8378    0.7096   -4.8589 C.3       1 <0>        -0.0348
     16 N2          5.8979    0.1497   -5.7079 N.4       1 <0>        -0.3697
     17 C10         5.2936   -0.6960   -6.7473 C.3       1 <0>        -0.0113
     18 C11         6.4046   -1.5156   -7.4201 C.3       1 <0>        -0.0744
     19 C12         7.5336   -0.5807   -7.7527 C.2       1 <0>        -0.0939
     20 C13         7.6786    0.6589   -7.2943 C.2       1 <0>        -0.1829
     21 C14         6.6569    1.2439   -6.3224 C.3       1 <0>         0.1481
     22 H4          5.9757    1.9018   -6.8620 H         1 <0>         0.1525
     23 C15         7.3714    2.0257   -5.2503 C.ar      1 <0>        -0.1417
     24 C16         7.9654    1.3638   -4.1920 C.ar      1 <0>        -0.1183
     25 C17         8.6208    2.0810   -3.2086 C.ar      1 <0>        -0.1003
     26 C18         8.6826    3.4599   -3.2837 C.ar      1 <0>        -0.0893
     27 C19         8.0893    4.1217   -4.3425 C.ar      1 <0>        -0.1045
     28 C20         7.4376    3.4042   -5.3282 C.ar      1 <0>        -0.0872
     29 C21         8.8646    1.4473   -7.7841 C.3       1 <0>        -0.0858
     30 C22         9.9714    0.5180   -8.3411 C.3       1 <0>        -0.0836
     31 S1          8.9206   -0.9226   -8.8056 S.3       1 <0>        -0.1148
     32 C23         2.7969   -0.6031    0.0293 C.2       1 <0>         0.5649
     33 O3          4.0092   -0.6954    0.0564 O.2       1 <0>        -0.5096
     34 N3          2.0691   -0.3455    1.1444 N.am      1 <0>        -0.5569
     35 N4          0.7176   -0.4932    1.1878 N.3       1 <0>        -0.4438
     36 H5          1.0039    1.9031    0.0027 H         1 <0>         0.0590
     37 H6         -0.5459    1.8868   -0.8726 H         1 <0>         0.0723
     38 H7         -0.5289    1.8773    0.9072 H         1 <0>         0.0863
     39 H8          0.9541    1.0792   -3.4384 H         1 <0>         0.0543
     40 H9         -0.3720    0.3449   -4.3714 H         1 <0>         0.0814
     41 H10        -0.7179    1.1755   -2.8355 H         1 <0>         0.0831
     42 H11         2.8415    0.7902   -3.1520 H         1 <0>         0.4067
     43 H12         4.1205    1.2463   -5.4799 H         1 <0>         0.1643
     44 H13         5.2767    1.3959   -4.1348 H         1 <0>         0.1632
     45 H14         4.5659   -1.3691   -6.2939 H         1 <0>         0.1576
     46 H15         4.8017   -0.0677   -7.4898 H         1 <0>         0.1343
     47 H16         6.7559   -2.2899   -6.7381 H         1 <0>         0.1176
     48 H17         6.0237   -1.9730   -8.3332 H         1 <0>         0.1336
     49 H18         7.9172    0.2865   -4.1333 H         1 <0>         0.1171
     50 H19         9.0843    1.5639   -2.3814 H         1 <0>         0.1366
     51 H20         9.1940    4.0202   -2.5151 H         1 <0>         0.1369
     52 H21         8.1373    5.1990   -4.4010 H         1 <0>         0.1384
     53 H22         6.9773    3.9210   -6.1573 H         1 <0>         0.1352
     54 H23         8.5400    2.1272   -8.5718 H         1 <0>         0.1008
     55 H24         9.2711    2.0304   -6.9577 H         1 <0>         0.0973
     56 H25        10.4594    0.9547   -9.2124 H         1 <0>         0.1272
     57 H26        10.6961    0.2529   -7.5713 H         1 <0>         0.1080
     58 H27         2.5302   -0.0443    1.9429 H         1 <0>         0.4326
     59 H28         0.4642   -1.4476    1.3949 H         1 <0>         0.3593
     60 H29         6.5178   -0.4108   -5.1425 H         1 <0>         0.4283
@<TRIPOS>BOND
     1    1    2 1
     2    1   36 1
     3    1   37 1
     4    1   38 1
     5    2    3 1
     6    2   35 1
     7    2    4 1
     8    4    9 1
     9    4    5 2
    10    5    6 1
    11    5   32 1
    12    6    7 1
    13    6    8 1
    14    6   12 1
    15    8    9 1
    16    9   10 1
    17    9   11 1
    18   11   39 1
    19   11   40 1
    20   11   41 1
    21   12   13 am
    22   12   42 1
    23   13   14 2
    24   13   15 1
    25   15   16 1
    26   15   43 1
    27   15   44 1
    28   16   21 1
    29   16   17 1
    30   16   60 1
    31   17   18 1
    32   17   45 1
    33   17   46 1
    34   18   19 1
    35   18   47 1
    36   18   48 1
    37   19   31 1
    38   19   20 2
    39   20   21 1
    40   20   29 1
    41   21   22 1
    42   21   23 1
    43   23   28 ar
    44   23   24 ar
    45   24   25 ar
    46   24   49 1
    47   25   26 ar
    48   25   50 1
    49   26   27 ar
    50   26   51 1
    51   27   28 ar
    52   27   52 1
    53   28   53 1
    54   29   30 1
    55   29   54 1
    56   29   55 1
    57   30   31 1
    58   30   56 1
    59   30   57 1
    60   32   33 2
    61   32   34 am
    62   34   35 1
    63   34   58 1
    64   35   59 1
@<TRIPOS>MOLECULE
ZINC45314406
   53    56     0     0     0
SMALL
USER_CHARGES

@<TRIPOS>ATOM
      1 C1          0.1117    1.1591   -0.7518 C.ar      1 <0>        -0.1168
      2 C2          1.2975    1.8675   -0.7558 C.ar      1 <0>        -0.0583
      3 C3          2.3811    1.4085   -0.0188 C.ar      1 <0>         0.1041
      4 C4          2.2688    0.2379    0.7203 C.ar      1 <0>        -0.0359
      5 C5          1.0805   -0.4656    0.7201 C.ar      1 <0>        -0.6567
      6 C6          0.0030   -0.0058   -0.0150 C.ar      1 <0>        -0.0141
      7 S1          0.9371   -1.9510    1.6570 S.o2      1 <0>         2.7017
      8 O1         -0.1022   -2.7113    1.0562 O.2       1 <0>        -0.9519
      9 O2          2.2548   -2.4572    1.8200 O.2       1 <0>        -0.9552
     10 N1          0.4024   -1.5282    3.1662 N.pl3     1 <0>        -1.2457
     11 N2          3.5839    2.1235   -0.0212 N.am      1 <0>        -0.6461
     12 C7          3.5686    3.4678   -0.1160 C.2       1 <0>         0.5018
     13 O3          2.5128    4.0647   -0.1030 O.2       1 <0>        -0.5083
     14 C8          4.8633    4.2293   -0.2383 C.3       1 <0>        -0.0290
     15 N3          4.5788    5.6679   -0.3257 N.4       1 <0>        -0.3784
     16 C9          3.9914    6.1372    0.9473 C.3       1 <0>        -0.0086
     17 C10         5.1891    6.7020    1.7511 C.3       1 <0>        -0.1429
     18 C11         6.0357    7.3610    0.6304 C.3       1 <0>        -0.1311
     19 C12         5.8314    6.4077   -0.5658 C.3       1 <0>         0.0830
     20 H1          6.6669    5.7108   -0.6314 H         1 <0>         0.1487
     21 C13         5.7211    7.2022   -1.8415 C.ar      1 <0>        -0.1413
     22 C14         4.5415    7.8548   -2.1483 C.ar      1 <0>        -0.1196
     23 C15         4.4361    8.5833   -3.3179 C.ar      1 <0>        -0.0988
     24 C16         5.5141    8.6619   -4.1872 C.ar      1 <0>         0.0805
     25 C17         6.7006    8.0080   -3.8776 C.ar      1 <0>         0.0653
     26 C18         6.8011    7.2820   -2.7001 C.ar      1 <0>        -0.0833
     27 O4          7.7731    8.0785   -4.7127 O.3       1 <0>        -0.3006
     28 C19         7.5172    8.5088   -6.0541 C.3       1 <0>         0.0186
     29 C20         6.6105    9.7457   -5.9974 C.3       1 <0>         0.0168
     30 O5          5.3939    9.3798   -5.3372 O.3       1 <0>        -0.2988
     31 H2         -0.7330    1.5179   -1.3212 H         1 <0>         0.1454
     32 H3          1.3819    2.7771   -1.3318 H         1 <0>         0.1424
     33 H4          3.1099   -0.1218    1.2942 H         1 <0>         0.1504
     34 H5         -0.9252   -0.5578   -0.0135 H         1 <0>         0.1522
     35 H6         -0.1410   -2.1468    3.6791 H         1 <0>         0.4262
     36 H7          0.6326   -0.6621    3.5373 H         1 <0>         0.4165
     37 H8          4.4288    1.6516    0.0455 H         1 <0>         0.4239
     38 H9          5.4836    4.0342    0.6364 H         1 <0>         0.1650
     39 H10         5.3904    3.9080   -1.1367 H         1 <0>         0.1646
     40 H11         3.2567    6.9203    0.7603 H         1 <0>         0.1377
     41 H12         3.5332    5.3058    1.4830 H         1 <0>         0.1354
     42 H13         4.8569    7.4442    2.4770 H         1 <0>         0.1213
     43 H14         5.7439    5.9011    2.2398 H         1 <0>         0.0982
     44 H15         5.6590    8.3571    0.3981 H         1 <0>         0.1058
     45 H16         7.0870    7.4021    0.9153 H         1 <0>         0.1185
     46 H17         3.7009    7.7948   -1.4729 H         1 <0>         0.1307
     47 H18         3.5133    9.0916   -3.5555 H         1 <0>         0.1486
     48 H19         7.7229    6.7749   -2.4559 H         1 <0>         0.1464
     49 H20         8.4569    8.7640   -6.5438 H         1 <0>         0.1342
     50 H21         7.0184    7.7125   -6.6066 H         1 <0>         0.0856
     51 H22         7.1068   10.5399   -5.4396 H         1 <0>         0.0870
     52 H23         6.3915   10.0876   -7.0089 H         1 <0>         0.1343
     53 H24         3.9319    5.8416   -1.0803 H         1 <0>         0.4306
@<TRIPOS>BOND
     1    1    6 ar
     2    1    2 ar
     3    1   31 1
     4    2    3 ar
     5    2   32 1
     6    3    4 ar
     7    3   11 1
     8    4    5 ar
     9    4   33 1
    10    5    6 ar
    11    5    7 1
    12    6   34 1
    13    7    8 2
    14    7    9 2
    15    7   10 1
    16   10   35 1
    17   10   36 1
    18   11   12 am
    19   11   37 1
    20   12   13 2
    21   12   14 1
    22   14   15 1
    23   14   38 1
    24   14   39 1
    25   15   19 1
    26   15   16 1
    27   15   53 1
    28   16   17 1
    29   16   40 1
    30   16   41 1
    31   17   18 1
    32   17   42 1
    33   17   43 1
    34   18   19 1
    35   18   44 1
    36   18   45 1
    37   19   20 1
    38   19   21 1
    39   21   26 ar
    40   21   22 ar
    41   22   23 ar
    42   22   46 1
    43   23   24 ar
    44   23   47 1
    45   24   30 1
    46   24   25 ar
    47   25   26 ar
    48   25   27 1
    49   26   48 1
    50   27   28 1
    51   28   29 1
    52   28   49 1
    53   28   50 1
    54   29   30 1
    55   29   51 1
    56   29   52 1
@<TRIPOS>MOLECULE
ZINC63314850
   50    53     0     0     0
SMALL
USER_CHARGES

@<TRIPOS>ATOM
      1 C1         -0.0184    1.5028    0.0103 C.3       1 <0>        -0.1221
      2 C2          0.0021   -0.0041    0.0020 C.2       1 <0>         0.1768
      3 C3         -1.1377   -0.6524    0.0041 C.2       1 <0>        -0.2348
      4 C4         -1.2406   -2.1536   -0.0110 C.3       1 <0>         0.4032
      5 H1         -1.9460   -2.4767    0.7546 H         1 <0>         0.0940
      6 N1          0.0703   -2.7372    0.2584 N.pl3     1 <0>        -0.4224
      7 C5          1.2244   -2.0233    0.2505 C.2       1 <0>         0.5114
      8 N2          1.2328   -0.6606   -0.0133 N.pl3     1 <0>        -0.6235
      9 N3          2.2054   -2.8398    0.5194 N.2       1 <0>        -0.5565
     10 C6          1.7219   -4.0724    0.7086 C.2       1 <0>         0.2306
     11 N4          0.4204   -4.0523    0.5592 N.2       1 <0>        -0.3137
     12 O1         -1.6990   -2.5863   -1.2934 O.3       1 <0>        -0.5594
     13 C7         -2.4136    0.1492    0.0230 C.3       1 <0>        -0.0394
     14 C8         -2.9238    0.3297   -1.4081 C.3       1 <0>        -0.1356
     15 C9         -4.1998    1.1314   -1.3892 C.2       1 <0>         0.5185
     16 O2         -4.6561    1.5201   -0.3349 O.2       1 <0>        -0.5305
     17 N5         -4.8337    1.4164   -2.5439 N.am      1 <0>        -0.7390
     18 C10        -6.0741    2.1957   -2.5255 C.3       1 <0>         0.1252
     19 C11        -6.5843    2.3762   -3.9566 C.3       1 <0>        -0.1083
     20 C12        -7.8602    3.1778   -3.9377 C.2       1 <0>         0.0820
     21 C13        -7.9845    4.5128   -4.1152 C.ar      1 <0>        -0.1633
     22 C14        -7.0062    5.5773   -4.3686 C.ar      1 <0>        -0.0064
     23 C15        -7.4426    6.8511   -4.5041 C.ar      1 <0>        -0.0749
     24 C16        -8.8034    7.1782   -4.4081 C.ar      1 <0>         0.0531
     25 C17        -9.7603    6.2551   -4.1770 C.ar      1 <0>        -0.1882
     26 C18        -9.4142    4.8845   -4.0188 C.ar      1 <0>         0.3295
     27 N6        -10.1454    3.8207   -3.7906 N.pl3     1 <0>        -0.5772
     28 C19        -9.2617    2.6515   -3.7228 C.3       1 <0>         0.0589
     29 Cl1        -6.2886    8.1129   -4.8039 Cl        1 <0>        -0.0133
     30 H2          1.0042    1.8801    0.0026 H         1 <0>         0.0780
     31 H3         -0.5455    1.8639   -0.8728 H         1 <0>         0.0886
     32 H4         -0.5286    1.8543    0.9071 H         1 <0>         0.0956
     33 H5          2.3109   -4.9457    0.9469 H         1 <0>         0.2267
     34 H6         -1.7892   -3.5456   -1.3758 H         1 <0>         0.3907
     35 H7         -3.1644   -0.3767    0.6128 H         1 <0>         0.0802
     36 H8         -2.2223    1.1264    0.4664 H         1 <0>         0.0877
     37 H9         -2.1730    0.8556   -1.9979 H         1 <0>         0.0963
     38 H10        -3.1152   -0.6474   -1.8516 H         1 <0>         0.1096
     39 H11        -4.4687    1.1055   -3.3871 H         1 <0>         0.4074
     40 H12        -6.8249    1.6698   -1.9357 H         1 <0>         0.0781
     41 H13        -5.8827    3.1728   -2.0820 H         1 <0>         0.0787
     42 H14        -5.8335    2.9021   -4.5464 H         1 <0>         0.1177
     43 H15        -6.7757    1.3990   -4.4000 H         1 <0>         0.1221
     44 H16        -5.9537    5.3474   -4.4454 H         1 <0>         0.1704
     45 H17        -9.0972    8.2111   -4.5235 H         1 <0>         0.1709
     46 H18       -10.7947    6.5587   -4.1115 H         1 <0>         0.1712
     47 H19        -9.5189    1.9374   -4.5052 H         1 <0>         0.1802
     48 H20        -9.3400    2.1805   -2.7430 H         1 <0>         0.1793
     49 H21       -11.1098    3.8080   -3.6877 H         1 <0>         0.4586
     50 H22         2.0579   -0.1847   -0.1968 H         1 <0>         0.4374
@<TRIPOS>BOND
     1    1    2 1
     2    1   30 1
     3    1   31 1
     4    1   32 1
     5    2    8 1
     6    2    3 2
     7    3    4 1
     8    3   13 1
     9    4    5 1
    10    4    6 1
    11    4   12 1
    12    6   11 1
    13    6    7 1
    14    7    8 1
    15    7    9 2
    16    8   50 1
    17    9   10 1
    18   10   11 2
    19   10   33 1
    20   12   34 1
    21   13   14 1
    22   13   35 1
    23   13   36 1
    24   14   15 1
    25   14   37 1
    26   14   38 1
    27   15   16 2
    28   15   17 am
    29   17   18 1
    30   17   39 1
    31   18   19 1
    32   18   40 1
    33   18   41 1
    34   19   20 1
    35   19   42 1
    36   19   43 1
    37   20   28 1
    38   20   21 2
    39   21   26 ar
    40   21   22 ar
    41   22   23 ar
    42   22   44 1
    43   23   24 ar
    44   23   29 1
    45   24   25 ar
    46   24   45 1
    47   25   26 ar
    48   25   46 1
    49   26   27 2
    50   27   28 1
    51   27   49 1
    52   28   47 1
    53   28   48 1
@<TRIPOS>MOLECULE
ZINC65476844
   56    58     0     0     0
SMALL
USER_CHARGES

@<TRIPOS>ATOM
      1 C1          1.2987   -5.6629   -5.4978 C.3       1 <0>        -0.1323
      2 C2          0.9836   -5.2990   -4.0698 C.ar      1 <0>        -0.0468
      3 C3          1.5852   -5.9866   -3.0324 C.ar      1 <0>        -0.1066
      4 C4          1.2962   -5.6528   -1.7225 C.ar      1 <0>        -0.0918
      5 C5          0.4058   -4.6311   -1.4499 C.ar      1 <0>        -0.1525
      6 C6         -0.1951   -3.9429   -2.4873 C.ar      1 <0>        -0.1121
      7 C7          0.0972   -4.2738   -3.7972 C.ar      1 <0>        -0.1028
      8 C8          0.0900   -4.2678   -0.0219 C.3       1 <0>         0.0661
      9 C9         -1.2439   -4.8993    0.3819 C.3       1 <0>         0.1225
     10 N1         -1.1155   -6.3586    0.3738 N.am      1 <0>        -0.7403
     11 C10        -2.1975   -7.1315    0.5943 C.2       1 <0>         0.7217
     12 O1         -3.2800   -6.6175    0.8000 O.2       1 <0>        -0.5532
     13 N2         -2.0794   -8.4740    0.5869 N.am      1 <0>        -0.5180
     14 N3         -0.8321   -9.0663    0.3499 N.am      1 <0>        -0.5310
     15 C11        -0.7140  -10.4088    0.3425 C.2       1 <0>         0.5266
     16 O2         -1.6876  -11.1043    0.5409 O.2       1 <0>        -0.4804
     17 C12         0.6277  -11.0459    0.0875 C.3       1 <0>         0.0473
     18 C13         1.0756  -10.7513   -1.3505 C.3       1 <0>         0.0338
     19 O3          2.3437  -11.3812   -1.5629 O.3       1 <0>        -0.2968
     20 C14         2.4647  -12.6696   -1.1412 C.ar      1 <0>         0.0409
     21 C15         3.5055  -13.4490   -1.6241 C.ar      1 <0>        -0.1081
     22 C16         3.6436  -14.7579   -1.2028 C.ar      1 <0>        -0.1092
     23 C17         2.7449  -15.2941   -0.2993 C.ar      1 <0>        -0.1069
     24 C18         1.7048  -14.5235    0.1845 C.ar      1 <0>        -0.1055
     25 C19         1.5593  -13.2098   -0.2358 C.ar      1 <0>         0.0483
     26 O4          0.5257  -12.4654    0.2437 O.3       1 <0>        -0.2765
     27 N4         -0.0022   -2.8070    0.1029 N.4       1 <0>        -0.3804
     28 C20        -0.2926   -2.4521    1.4984 C.3       1 <0>        -0.0565
     29 C21         1.2727   -2.1996   -0.3018 C.3       1 <0>        -0.0488
     30 H1          2.1521   -5.0786   -5.8418 H         1 <0>         0.0838
     31 H2          1.5375   -6.7248   -5.5579 H         1 <0>         0.0773
     32 H3          0.4345   -5.4487   -6.1266 H         1 <0>         0.0764
     33 H4          2.2808   -6.7849   -3.2453 H         1 <0>         0.1388
     34 H5          1.7657   -6.1905   -0.9120 H         1 <0>         0.1307
     35 H6         -0.8909   -3.1448   -2.2744 H         1 <0>         0.1208
     36 H7         -0.3694   -3.7337   -4.6077 H         1 <0>         0.1369
     37 H8          0.8801   -4.6391    0.6307 H         1 <0>         0.1495
     38 H9         -1.5164   -4.5640    1.3826 H         1 <0>         0.0960
     39 H10        -2.0170   -4.5986   -0.3251 H         1 <0>         0.0976
     40 H11        -0.2519   -6.7687    0.2097 H         1 <0>         0.3949
     41 H12        -2.8581   -9.0302    0.7456 H         1 <0>         0.4530
     42 H13        -0.0534   -8.5100    0.1912 H         1 <0>         0.4166
     43 H14         1.3616  -10.6506    0.7899 H         1 <0>         0.1185
     44 H15         0.3441  -11.1516   -2.0525 H         1 <0>         0.0894
     45 H16         1.1714   -9.6749   -1.4925 H         1 <0>         0.1215
     46 H17         4.2086  -13.0326   -2.3303 H         1 <0>         0.1382
     47 H18         4.4546  -15.3630   -1.5802 H         1 <0>         0.1380
     48 H19         2.8557  -16.3172    0.0285 H         1 <0>         0.1387
     49 H20         1.0042  -14.9449    0.8902 H         1 <0>         0.1398
     50 H21        -0.2392   -1.3698    1.6168 H         1 <0>         0.1322
     51 H22        -1.2927   -2.7973    1.7606 H         1 <0>         0.1284
     52 H23         0.4386   -2.9257    2.1535 H         1 <0>         0.1264
     53 H24         1.4882   -2.4630   -1.3373 H         1 <0>         0.1257
     54 H25         1.2043   -1.1157   -0.2092 H         1 <0>         0.1295
     55 H26         2.0716   -2.5695    0.3410 H         1 <0>         0.1247
     56 H27        -0.7417   -2.4646   -0.4921 H         1 <0>         0.4261
@<TRIPOS>BOND
     1    1    2 1
     2    1   30 1
     3    1   31 1
     4    1   32 1
     5    2    7 ar
     6    2    3 ar
     7    3    4 ar
     8    3   33 1
     9    4    5 ar
    10    4   34 1
    11    5    6 ar
    12    5    8 1
    13    6    7 ar
    14    6   35 1
    15    7   36 1
    16    8    9 1
    17    8   27 1
    18    8   37 1
    19    9   10 1
    20    9   38 1
    21    9   39 1
    22   10   11 am
    23   10   40 1
    24   11   12 2
    25   11   13 am
    26   13   14 1
    27   13   41 1
    28   14   15 am
    29   14   42 1
    30   15   16 2
    31   15   17 1
    32   17   26 1
    33   17   18 1
    34   17   43 1
    35   18   19 1
    36   18   44 1
    37   18   45 1
    38   19   20 1
    39   20   25 ar
    40   20   21 ar
    41   21   22 ar
    42   21   46 1
    43   22   23 ar
    44   22   47 1
    45   23   24 ar
    46   23   48 1
    47   24   25 ar
    48   24   49 1
    49   25   26 1
    50   27   28 1
    51   27   29 1
    52   27   56 1
    53   28   50 1
    54   28   51 1
    55   28   52 1
    56   29   53 1
    57   29   54 1
    58   29   55 1
@<TRIPOS>MOLECULE
ZINC19798633
   45    47     0     0     0
SMALL
USER_CHARGES
2-[2-bromo-4-[(E)-[1-(3,4-dimethylphenyl)-2,4,6-trioxo-hexahydropyrimidin-5-ylidene]methyl]phenoxy]acetic acid
@<TRIPOS>ATOM
      1 C1          0.4902    1.4266    0.2013 C.3       1 <0>        -0.1058
      2 C2          0.2232   -0.0548    0.1288 C.ar      1 <0>        -0.1004
      3 C3          1.2804   -0.9448    0.0755 C.ar      1 <0>        -0.1109
      4 C4          1.0389   -2.3032    0.0147 C.ar      1 <0>        -0.1071
      5 C5         -0.2671   -2.7745   -0.0045 C.ar      1 <0>         0.1585
      6 C6         -1.3262   -1.8784    0.0434 C.ar      1 <0>        -0.0916
      7 C7         -1.0783   -0.5211    0.1098 C.ar      1 <0>        -0.0853
      8 C8         -2.2275    0.4524    0.1613 C.3       1 <0>        -0.1075
      9 N1         -0.5154   -4.1521   -0.0715 N.am      1 <0>        -0.5480
     10 C9         -0.1743   -4.8294   -1.1872 C.2       1 <0>         0.5688
     11 O1          0.3437   -4.2609   -2.1296 O.2       1 <0>        -0.5295
     12 C10        -0.4464   -6.2795   -1.2326 C.2       1 <0>        -0.2786
     13 C11        -0.1247   -7.0397   -2.3407 C.2       1 <0>         0.0601
     14 C12        -0.2083   -8.4985   -2.2761 C.ar      1 <0>        -0.1322
     15 C13         0.3254   -9.1868   -1.1757 C.ar      1 <0>         0.0462
     16 C14         0.2410  -10.5480   -1.1158 C.ar      1 <0>        -0.2239
     17 C15        -0.3633  -11.2595   -2.1475 C.ar      1 <0>         0.1871
     18 C16        -0.8915  -10.5887   -3.2474 C.ar      1 <0>        -0.1520
     19 C17        -0.8175   -9.2162   -3.3170 C.ar      1 <0>        -0.0231
     20 Br1        -1.7112  -11.5634   -4.6452 Br        1 <0>        -0.0524
     21 O2         -0.4378  -12.6123   -2.0817 O.3       1 <0>        -0.2715
     22 C18         0.1237  -13.2376   -0.9259 C.3       1 <0>         0.0126
     23 C19        -0.0510  -14.7310   -1.0278 C.2       1 <0>         0.4725
     24 O3         -0.5999  -15.2106   -1.9914 O.co2     1 <0>        -0.6119
     25 O4          0.4033  -15.5282   -0.0482 O.co2     1 <0>        -0.7603
     26 C20        -1.0772   -6.8815   -0.0412 C.2       1 <0>         0.5291
     27 O5         -1.3331   -8.0701   -0.0027 O.3       1 <0>        -0.5352
     28 N2         -1.3624   -6.0770    1.0035 N.2       1 <0>        -0.7020
     29 C21        -1.0813   -4.7668    0.9764 C.2       1 <0>         0.6616
     30 O6         -1.3592   -4.0991    1.9531 O.2       1 <0>        -0.5833
     31 H1          1.5758    1.6037    0.2067 H         1 <0>         0.0602
     32 H2          0.0476    1.8343    1.1221 H         1 <0>         0.0650
     33 H3          0.0420    1.9231   -0.6720 H         1 <0>         0.0643
     34 H4          2.2959   -0.5774    0.0857 H         1 <0>         0.1210
     35 H5          1.8649   -2.9979   -0.0228 H         1 <0>         0.1187
     36 H6         -2.3431   -2.2421    0.0290 H         1 <0>         0.1212
     37 H7         -3.1780   -0.1008    0.1369 H         1 <0>         0.0633
     38 H8         -2.1744    1.1285   -0.7048 H         1 <0>         0.0651
     39 H9         -2.1689    1.0400    1.0893 H         1 <0>         0.0667
     40 H10         0.1943   -6.5478   -3.2714 H         1 <0>         0.1374
     41 H11         0.7994   -8.6393   -0.3745 H         1 <0>         0.1242
     42 H12         0.6492  -11.0751   -0.2661 H         1 <0>         0.1355
     43 H13        -1.2261   -8.6936   -4.1692 H         1 <0>         0.1324
     44 H14         1.1953  -12.9972   -0.8631 H         1 <0>         0.0687
     45 H15        -0.3881  -12.8692   -0.0246 H         1 <0>         0.0720
@<TRIPOS>BOND
     1    1    2 1
     2    1   31 1
     3    1   32 1
     4    1   33 1
     5    2    7 ar
     6    2    3 ar
     7    3    4 ar
     8    3   34 1
     9    4    5 ar
    10    4   35 1
    11    5    6 ar
    12    5    9 1
    13    6    7 ar
    14    6   36 1
    15    7    8 1
    16    8   37 1
    17    8   38 1
    18    8   39 1
    19    9   29 am
    20    9   10 am
    21   10   11 2
    22   10   12 1
    23   12   13 2
    24   12   26 1
    25   13   14 1
    26   13   40 1
    27   14   19 ar
    28   14   15 ar
    29   15   16 ar
    30   15   41 1
    31   16   17 ar
    32   16   42 1
    33   17   18 ar
    34   17   21 1
    35   18   19 ar
    36   18   20 1
    37   19   43 1
    38   21   22 1
    39   22   23 1
    40   22   44 1
    41   22   45 1
    42   23   24 2
    43   23   25 1
    44   26   27 1
    45   26   28 2
    46   28   29 1
    47   29   30 2
@<TRIPOS>MOLECULE
ZINC04005786
   56    59     0     0     0
SMALL
USER_CHARGES

@<TRIPOS>ATOM
      1 C1         -0.0189    1.5394    0.0105 C.3       1 <0>        -0.1195
      2 C2          1.4776    1.9399   -0.0016 C.3       1 <0>        -0.1231
      3 C3          2.1090    0.8793   -0.9386 C.3       1 <0>        -0.1168
      4 C4          1.3518   -0.4177   -0.6013 C.3       1 <0>         0.0485
      5 C5          0.0021   -0.0041    0.0020 C.3       1 <0>        -0.1116
      6 C6          2.1504   -1.2377    0.4092 C.3       1 <0>        -0.0230
      7 H1          2.0863   -0.7670    1.3903 H         1 <0>         0.1268
      8 C7          1.5881   -2.6324    0.4845 C.2       1 <0>         0.4746
      9 N1          1.0734   -3.2110   -0.5590 N.2       1 <0>        -0.6461
     10 C8          1.0080   -2.5949   -1.7628 C.2       1 <0>         0.2569
     11 C9          1.1338   -1.2230   -1.8538 C.2       1 <0>        -0.2797
     12 C10         1.0581   -0.5729   -3.1274 C.1       1 <0>         0.2984
     13 N2          0.9980   -0.0571   -4.1378 N.1       1 <0>        -0.4967
     14 S1          0.7606   -3.5500   -3.2227 S.3       1 <0>        -0.0898
     15 C11         0.6556   -5.2569   -2.6178 C.3       1 <0>        -0.0766
     16 C12         0.4382   -6.2042   -3.7994 C.3       1 <0>        -0.0764
     17 S2          0.3332   -7.9112   -3.1945 S.3       1 <0>        -0.0902
     18 C13         0.0858   -8.8663   -4.6544 C.2       1 <0>         0.2570
     19 C14        -0.0458  -10.2376   -4.5629 C.2       1 <0>        -0.2799
     20 C15        -0.2503  -11.0437   -5.8171 C.3       1 <0>         0.0486
     21 C16        -1.7537  -11.1559   -6.1279 C.3       1 <0>        -0.1101
     22 C17        -1.9183  -12.5929   -6.6841 C.3       1 <0>        -0.1236
     23 C18        -0.9353  -13.4131   -5.8116 C.3       1 <0>        -0.1194
     24 C19         0.2734  -12.4730   -5.6171 C.3       1 <0>        -0.1159
     25 C20         0.4737  -10.3773   -6.9846 C.3       1 <0>        -0.0225
     26 H2          0.1214  -10.8061   -7.9227 H         1 <0>         0.1268
     27 C21         0.1938   -8.8978   -6.9730 C.2       1 <0>         0.4738
     28 N3          0.0203   -8.2502   -5.8582 N.2       1 <0>        -0.6461
     29 O1          0.1164   -8.2324   -8.1398 O.3       1 <0>        -0.6439
     30 C22         1.9227  -10.6028   -6.8560 C.1       1 <0>         0.2414
     31 N4          3.0409  -10.7769   -6.7567 N.1       1 <0>        -0.4507
     32 C23         0.0123  -10.8863   -3.2875 C.1       1 <0>         0.2981
     33 N5          0.0584  -11.4009   -2.2758 N.1       1 <0>        -0.4963
     34 O2          1.6197   -3.2934    1.6559 O.3       1 <0>        -0.6442
     35 C24         3.5590   -1.2996   -0.0136 C.1       1 <0>         0.2427
     36 N6          4.6461   -1.3475   -0.3399 N.1       1 <0>        -0.4513
     37 H3         -0.5054    1.9093    0.9130 H         1 <0>         0.0624
     38 H4         -0.5226    1.9190   -0.8785 H         1 <0>         0.0626
     39 H5          1.6058    2.9420   -0.4109 H         1 <0>         0.0613
     40 H6          1.9034    1.8731    0.9995 H         1 <0>         0.0669
     41 H7          1.9539    1.1515   -1.9826 H         1 <0>         0.0713
     42 H8          3.1722    0.7669   -0.7264 H         1 <0>         0.0640
     43 H9         -0.0849   -0.3847    1.0197 H         1 <0>         0.0698
     44 H10        -0.8142   -0.3856   -0.6113 H         1 <0>         0.0749
     45 H11         1.5824   -5.5192   -2.1076 H         1 <0>         0.0956
     46 H12        -0.1794   -5.3454   -1.9228 H         1 <0>         0.1018
     47 H13        -0.4886   -5.9419   -4.3096 H         1 <0>         0.1018
     48 H14         1.2731   -6.1158   -4.4944 H         1 <0>         0.0956
     49 H15        -2.3419  -11.0286   -5.2191 H         1 <0>         0.0753
     50 H16        -2.0443  -10.4205   -6.8781 H         1 <0>         0.0725
     51 H17        -2.9410  -12.9448   -6.5483 H         1 <0>         0.0635
     52 H18        -1.6303  -12.6358   -7.7345 H         1 <0>         0.0665
     53 H19        -1.3890  -13.6549   -4.8504 H         1 <0>         0.0630
     54 H20        -0.6318  -14.3222   -6.3307 H         1 <0>         0.0602
     55 H21         1.0431  -12.6959   -6.3560 H         1 <0>         0.0628
     56 H22         0.6767  -12.5859   -4.6107 H         1 <0>         0.0680
@<TRIPOS>BOND
     1    1    5 1
     2    1    2 1
     3    1   37 1
     4    1   38 1
     5    2    3 1
     6    2   39 1
     7    2   40 1
     8    3    4 1
     9    3   41 1
    10    3   42 1
    11    4   11 1
    12    4    5 1
    13    4    6 1
    14    5   43 1
    15    5   44 1
    16    6    7 1
    17    6    8 1
    18    6   35 1
    19    8    9 2
    20    8   34 1
    21    9   10 1
    22   10   11 2
    23   10   14 1
    24   11   12 1
    25   12   13 3
    26   14   15 1
    27   15   16 1
    28   15   45 1
    29   15   46 1
    30   16   17 1
    31   16   47 1
    32   16   48 1
    33   17   18 1
    34   18   28 1
    35   18   19 2
    36   19   20 1
    37   19   32 1
    38   20   24 1
    39   20   21 1
    40   20   25 1
    41   21   22 1
    42   21   49 1
    43   21   50 1
    44   22   23 1
    45   22   51 1
    46   22   52 1
    47   23   24 1
    48   23   53 1
    49   23   54 1
    50   24   55 1
    51   24   56 1
    52   25   26 1
    53   25   27 1
    54   25   30 1
    55   27   28 2
    56   27   29 1
    57   30   31 3
    58   32   33 3
    59   35   36 3
@<TRIPOS>MOLECULE
ZINC13214050
   46    49     0     0     0
SMALL
USER_CHARGES

@<TRIPOS>ATOM
      1 C1          2.1400    0.9726   -0.1947 C.3       1 <0>         0.0246
      2 O1          1.3838   -0.2328   -0.3258 O.3       1 <0>        -0.2996
      3 C2          0.9785   -0.5738   -1.5773 C.ar      1 <0>         0.1465
      4 C3          1.2930    0.2407   -2.6557 C.ar      1 <0>        -0.2177
      5 C4          0.8803   -0.1084   -3.9268 C.ar      1 <0>        -0.0893
      6 C5          0.1541   -1.2684   -4.1251 C.ar      1 <0>        -0.1600
      7 C6         -0.1609   -2.0813   -3.0522 C.ar      1 <0>        -0.0525
      8 C7          0.2545   -1.7396   -1.7796 C.ar      1 <0>        -0.0927
      9 C8         -0.0840   -2.6294   -0.6114 C.3       1 <0>         0.2553
     10 H1          0.2185   -2.1538    0.3216 H         1 <0>         0.0862
     11 C9         -1.5669   -2.9182   -0.5906 C.2       1 <0>        -0.4758
     12 C10        -1.7051   -4.2587   -0.7135 C.2       1 <0>         0.2909
     13 C11        -0.3691   -4.8775   -0.8159 C.2       1 <0>         0.4967
     14 O2         -0.1598   -6.0686   -0.9359 O.2       1 <0>        -0.4953
     15 N1          0.5843   -3.9281   -0.7558 N.am      1 <0>        -0.5448
     16 C12         1.9645   -4.1407   -0.8205 C.ar      1 <0>         0.1634
     17 C13         2.8385   -3.0621   -0.7409 C.ar      1 <0>        -0.1671
     18 C14         4.2041   -3.2664   -0.8043 C.ar      1 <0>        -0.1196
     19 C15         4.7101   -4.5422   -0.9471 C.ar      1 <0>        -0.1184
     20 C16         3.8411   -5.6333   -1.0276 C.ar      1 <0>        -0.1137
     21 C17         2.4618   -5.4272   -0.9583 C.ar      1 <0>        -0.1206
     22 C18         4.3790   -6.9988   -1.1804 C.2       1 <0>         0.5227
     23 O3          5.5875   -7.1771   -1.2367 O.co2     1 <0>        -0.6985
     24 O4          3.6163   -7.9521   -1.2507 O.co2     1 <0>        -0.6811
     25 O5         -2.8825   -4.9265   -0.7380 O.3       1 <0>        -0.6035
     26 C19        -2.6484   -1.9350   -0.4615 C.2       1 <0>         0.4932
     27 O6         -3.8096   -2.2896   -0.5641 O.2       1 <0>        -0.4793
     28 C20        -2.3318   -0.5261   -0.2090 C.2       1 <0>        -0.0424
     29 C21        -3.2308    0.5185   -0.1974 C.2       1 <0>        -0.1757
     30 C22        -2.4929    1.6773    0.0841 C.2       1 <0>        -0.2278
     31 C23        -1.2015    1.3031    0.2301 C.2       1 <0>        -0.0409
     32 O7         -1.1094   -0.0219    0.0591 O.3       1 <0>        -0.1256
     33 H2          3.0985    0.8571   -0.7008 H         1 <0>         0.0520
     34 H3          1.5887    1.7982   -0.6448 H         1 <0>         0.0489
     35 H4          2.3097    1.1820    0.8614 H         1 <0>         0.0943
     36 H5          1.8598    1.1469   -2.5013 H         1 <0>         0.1202
     37 H6          1.1246    0.5254   -4.7665 H         1 <0>         0.1150
     38 H7         -0.1677   -1.5396   -5.1197 H         1 <0>         0.1173
     39 H8         -0.7285   -2.9866   -3.2096 H         1 <0>         0.1253
     40 H9          2.4489   -2.0611   -0.6294 H         1 <0>         0.1266
     41 H10         4.8775   -2.4243   -0.7422 H         1 <0>         0.1090
     42 H11         5.7778   -4.6973   -0.9969 H         1 <0>         0.1196
     43 H12         1.7848   -6.2667   -1.0158 H         1 <0>         0.1564
     44 H13        -4.2949    0.4567   -0.3712 H         1 <0>         0.1476
     45 H14        -2.8829    2.6809    0.1681 H         1 <0>         0.1411
     46 H15        -0.3780    1.9654    0.4532 H         1 <0>         0.1889
@<TRIPOS>BOND
     1    1    2 1
     2    1   33 1
     3    1   34 1
     4    1   35 1
     5    2    3 1
     6    3    8 ar
     7    3    4 ar
     8    4    5 ar
     9    4   36 1
    10    5    6 ar
    11    5   37 1
    12    6    7 ar
    13    6   38 1
    14    7    8 ar
    15    7   39 1
    16    8    9 1
    17    9   10 1
    18    9   15 1
    19    9   11 1
    20   11   12 2
    21   11   26 1
    22   12   13 1
    23   12   25 1
    24   13   14 2
    25   13   15 am
    26   15   16 1
    27   16   21 ar
    28   16   17 ar
    29   17   18 ar
    30   17   40 1
    31   18   19 ar
    32   18   41 1
    33   19   20 ar
    34   19   42 1
    35   20   21 ar
    36   20   22 1
    37   21   43 1
    38   22   23 2
    39   22   24 1
    40   26   27 2
    41   26   28 1
    42   28   32 1
    43   28   29 2
    44   29   30 1
    45   29   44 1
    46   30   31 2
    47   30   45 1
    48   31   32 1
    49   31   46 1
@<TRIPOS>MOLECULE
ZINC19795195
   39    41     0     0     0
SMALL
USER_CHARGES

@<TRIPOS>ATOM
      1 C1          0.4813    0.4738   -1.3445 C.ar      1 <0>        -0.0852
      2 C2          1.6912    1.1324   -1.4492 C.ar      1 <0>        -0.1066
      3 C3          2.3960    1.4751   -0.3032 C.ar      1 <0>         0.1871
      4 C4          1.8828    1.1548    0.9463 C.ar      1 <0>        -0.1397
      5 C5          0.6710    0.4954    1.0459 C.ar      1 <0>         0.1020
      6 C6         -0.0290    0.1553   -0.1001 C.ar      1 <0>        -0.1596
      7 F1          0.1701    0.1829    2.2610 F         1 <0>        -0.1422
      8 N1          3.6235    2.1426   -0.4076 N.am      1 <0>        -0.5522
      9 C7          4.7609    1.4976   -0.0705 C.2       1 <0>         0.5697
     10 O1          4.7381    0.3461    0.3220 O.2       1 <0>        -0.5221
     11 C8          6.0332    2.2362   -0.1948 C.2       1 <0>        -0.2677
     12 C9          7.2460    1.6495    0.1294 C.2       1 <0>         0.0868
     13 C10         8.4518    2.4692    0.2253 C.ar      1 <0>        -0.1359
     14 C11         8.4286    3.6764    0.9424 C.ar      1 <0>         0.0534
     15 C12         9.5583    4.4380    1.0283 C.ar      1 <0>        -0.2244
     16 C13        10.7318    4.0208    0.4072 C.ar      1 <0>         0.1746
     17 C14        10.7623    2.8247   -0.3058 C.ar      1 <0>        -0.0984
     18 C15         9.6401    2.0505   -0.3945 C.ar      1 <0>        -0.0386
     19 Cl1        12.2309    2.3130   -1.0771 Cl        1 <0>        -0.0723
     20 O2         11.8506    4.7826    0.4961 O.3       1 <0>        -0.2678
     21 C16        11.7506    5.9974    1.2419 C.3       1 <0>        -0.0097
     22 C17        13.0814    6.7046    1.2308 C.2       1 <0>         0.5040
     23 O3         14.0277    6.2137    0.6392 O.co2     1 <0>        -0.6705
     24 O4         13.2117    7.7676    1.8135 O.co2     1 <0>        -0.6925
     25 C18         5.9551    3.6235   -0.6790 C.2       1 <0>         0.4936
     26 O5          7.0711    4.3688   -0.8219 O.3       1 <0>        -0.6035
     27 N2          4.7664    4.1229   -0.9713 N.2       1 <0>        -0.6607
     28 C19         3.6498    3.4097   -0.8458 C.2       1 <0>         0.6678
     29 O6          2.5928    3.9390   -1.1401 O.2       1 <0>        -0.5697
     30 H1         -0.0688    0.2115   -2.2362 H         1 <0>         0.1352
     31 H2          2.0888    1.3803   -2.4223 H         1 <0>         0.1305
     32 H3          2.4292    1.4199    1.8394 H         1 <0>         0.1336
     33 H4         -0.9751   -0.3596   -0.0210 H         1 <0>         0.1335
     34 H5          7.3000    0.5863    0.3113 H         1 <0>         0.1364
     35 H6          7.5187    4.0018    1.4247 H         1 <0>         0.1215
     36 H7          9.5413    5.3667    1.5794 H         1 <0>         0.1337
     37 H8          9.6658    1.1208   -0.9435 H         1 <0>         0.1316
     38 H9         10.9942    6.6396    0.7906 H         1 <0>         0.0639
     39 H10        11.4683    5.7705    2.2699 H         1 <0>         0.0604
@<TRIPOS>BOND
     1    1    6 ar
     2    1    2 ar
     3    1   30 1
     4    2    3 ar
     5    2   31 1
     6    3    4 ar
     7    3    8 1
     8    4    5 ar
     9    4   32 1
    10    5    6 ar
    11    5    7 1
    12    6   33 1
    13    8   28 am
    14    8    9 am
    15    9   10 2
    16    9   11 1
    17   11   12 2
    18   11   25 1
    19   12   13 1
    20   12   34 1
    21   13   18 ar
    22   13   14 ar
    23   14   15 ar
    24   14   35 1
    25   15   16 ar
    26   15   36 1
    27   16   17 ar
    28   16   20 1
    29   17   18 ar
    30   17   19 1
    31   18   37 1
    32   20   21 1
    33   21   22 1
    34   21   38 1
    35   21   39 1
    36   22   23 2
    37   22   24 1
    38   25   26 1
    39   25   27 2
    40   27   28 1
    41   28   29 2
@<TRIPOS>MOLECULE
ZINC16902160
   41    43     0     0     0
SMALL
USER_CHARGES

@<TRIPOS>ATOM
      1 C1          0.3942    2.3830   -0.2951 C.ar      1 <0>        -0.1783
      2 C2          1.6920    2.8582   -0.3476 C.ar      1 <0>        -0.0403
      3 C3          2.7544    1.9799   -0.2658 C.ar      1 <0>        -0.1803
      4 C4          2.5184    0.6175   -0.1305 C.ar      1 <0>         0.2681
      5 C5          1.2139    0.1437   -0.0782 C.ar      1 <0>        -0.2595
      6 C6          0.1558    1.0278   -0.1606 C.ar      1 <0>        -0.0309
      7 C7          0.9531   -1.3334    0.0680 C.3       1 <0>         0.5093
      8 F1         -0.4267   -1.5627    0.0967 F         1 <0>        -0.1785
      9 F2          1.5168   -2.0159   -1.0154 F         1 <0>        -0.1815
     10 F3          1.5271   -1.7927    1.2583 F         1 <0>        -0.1726
     11 N1          3.5907   -0.2738   -0.0479 N.pl3     1 <0>        -0.7201
     12 C8          4.9660    0.2278   -0.1038 C.3       1 <0>         0.1206
     13 H1          5.0319    1.0903   -0.7670 H         1 <0>         0.1366
     14 C9          5.9311   -0.8844   -0.5623 C.3       1 <0>        -0.1583
     15 C10         6.8707   -1.0453    0.6128 C.2       1 <0>         0.5209
     16 O1          7.7951   -1.8274    0.6708 O.2       1 <0>        -0.4608
     17 N2          6.5197   -0.1867    1.5781 N.am      1 <0>        -0.5085
     18 C11         5.4603    0.5823    1.2817 C.2       1 <0>         0.5029
     19 O2          4.9755    1.4249    2.0059 O.2       1 <0>        -0.4466
     20 C12         7.2040   -0.0962    2.7991 C.ar      1 <0>         0.0472
     21 C13         6.5781   -0.4868    3.9730 C.ar      1 <0>        -0.0623
     22 C14         7.2562   -0.3978    5.1918 C.ar      1 <0>        -0.1499
     23 C15         8.5641    0.0841    5.2261 C.ar      1 <0>        -0.0277
     24 C16         9.1900    0.4754    4.0432 C.ar      1 <0>        -0.1503
     25 C17         8.5065    0.3782    2.8281 C.ar      1 <0>        -0.0626
     26 C18        10.5742    0.9861    4.0736 C.2       1 <0>         0.5295
     27 O3         11.1731    1.0665    5.1368 O.co2     1 <0>        -0.6850
     28 O4         11.1223    1.3291    3.0357 O.co2     1 <0>        -0.6990
     29 C19         6.5886   -0.8129    6.4408 C.2       1 <0>         0.5289
     30 O5          5.4413   -1.2350    6.4097 O.co2     1 <0>        -0.6979
     31 O6          7.1827   -0.7347    7.5068 O.co2     1 <0>        -0.6853
     32 H2         -0.4348    3.0726   -0.3549 H         1 <0>         0.1285
     33 H3          1.8748    3.9174   -0.4531 H         1 <0>         0.1311
     34 H4          3.7676    2.3516   -0.3072 H         1 <0>         0.1351
     35 H5         -0.8588    0.6600   -0.1200 H         1 <0>         0.1346
     36 H6          3.4247   -1.2248    0.0465 H         1 <0>         0.4069
     37 H7          5.3879   -1.8109   -0.7488 H         1 <0>         0.1244
     38 H8          6.4791   -0.5741   -1.4520 H         1 <0>         0.1338
     39 H9          5.5650   -0.8599    3.9456 H         1 <0>         0.1189
     40 H10         9.0908    0.1544    6.1664 H         1 <0>         0.1381
     41 H11         8.9921    0.6769    1.9108 H         1 <0>         0.1205
@<TRIPOS>BOND
     1    1    6 ar
     2    1    2 ar
     3    1   32 1
     4    2    3 ar
     5    2   33 1
     6    3    4 ar
     7    3   34 1
     8    4    5 ar
     9    4   11 1
    10    5    6 ar
    11    5    7 1
    12    6   35 1
    13    7    8 1
    14    7    9 1
    15    7   10 1
    16   11   12 1
    17   11   36 1
    18   12   13 1
    19   12   18 1
    20   12   14 1
    21   14   15 1
    22   14   37 1
    23   14   38 1
    24   15   16 2
    25   15   17 am
    26   17   18 am
    27   17   20 1
    28   18   19 2
    29   20   25 ar
    30   20   21 ar
    31   21   22 ar
    32   21   39 1
    33   22   23 ar
    34   22   29 1
    35   23   24 ar
    36   23   40 1
    37   24   25 ar
    38   24   26 1
    39   25   41 1
    40   26   27 2
    41   26   28 1
    42   29   30 2
    43   29   31 1
@<TRIPOS>MOLECULE
ZINC12153524
   42    43     0     0     0
SMALL
USER_CHARGES
(1R,3R,4R,5S)-3-[(E)-3-(3,4-dihydroxyphenyl)prop-2-enoyl]oxy-1,4,5-trihydroxy-cyclohexane-1-carboxylic acid
@<TRIPOS>ATOM
      1 C1          0.0408   -2.0802    1.2006 C.ar      1 <0>        -0.0882
      2 C2          0.0230   -0.7025    1.2016 C.ar      1 <0>        -0.1304
      3 C3          0.0021   -0.0041    0.0020 C.ar      1 <0>         0.0895
      4 C4         -0.0059   -0.6929   -1.2109 C.ar      1 <0>         0.0760
      5 C5          0.0177   -2.0731   -1.2214 C.ar      1 <0>        -0.1067
      6 C6          0.0383   -2.7786   -0.0120 C.ar      1 <0>        -0.0632
      7 C7          0.0568   -4.2480   -0.0162 C.2       1 <0>        -0.0219
      8 C8          0.0763   -4.9266    1.1518 C.2       1 <0>        -0.1704
      9 C9          0.0941   -6.3443    1.1477 C.2       1 <0>         0.4897
     10 O1          0.0919   -6.9496    0.0925 O.2       1 <0>        -0.5316
     11 O2          0.1135   -7.0221    2.3143 O.3       1 <0>        -0.2719
     12 C10         0.1308   -8.4488    2.2354 C.3       1 <0>         0.1074
     13 H1         -0.3875   -8.7691    1.3315 H         1 <0>         0.0826
     14 C11        -0.5718   -9.0359    3.4612 C.3       1 <0>        -0.0808
     15 C12         0.1557   -8.5864    4.7300 C.3       1 <0>         0.1071
     16 C13         1.6041   -9.0774    4.6884 C.3       1 <0>        -0.1629
     17 C14         2.3067   -8.4903    3.4626 C.3       1 <0>         0.0864
     18 H2          3.3386   -8.8401    3.4330 H         1 <0>         0.0454
     19 C15         1.5792   -8.9398    2.1939 C.3       1 <0>         0.0996
     20 H3          2.0798   -8.5216    1.3206 H         1 <0>         0.0602
     21 O3          1.5965  -10.3665    2.1150 O.3       1 <0>        -0.5447
     22 O4          2.2894   -7.0636    3.5415 O.3       1 <0>        -0.5326
     23 C16        -0.5363   -9.1647    5.9374 C.2       1 <0>         0.4449
     24 O5         -1.1863  -10.1779    5.8336 O.co2     1 <0>        -0.6341
     25 O6          0.1384   -7.1597    4.8088 O.3       1 <0>        -0.5264
     26 O7         -0.0320   -0.0046   -2.3834 O.3       1 <0>        -0.4869
     27 O8         -0.0163    1.3539    0.0095 O.3       1 <0>        -0.4876
     28 H4          0.0563   -2.6209    2.1354 H         1 <0>         0.1427
     29 H5          0.0249   -0.1646    2.1381 H         1 <0>         0.1390
     30 H6          0.0161   -2.6075   -2.1600 H         1 <0>         0.1394
     31 H7          0.0549   -4.7854   -0.9530 H         1 <0>         0.1392
     32 H8          0.0782   -4.3893    2.0886 H         1 <0>         0.1440
     33 H9         -1.6037   -8.6861    3.4908 H         1 <0>         0.0715
     34 H10        -0.5586  -10.1242    3.4011 H         1 <0>         0.1051
     35 H11         2.1224   -8.7572    5.5923 H         1 <0>         0.0680
     36 H12         1.6173  -10.1657    4.6283 H         1 <0>         0.0785
     37 H13         2.4846  -10.7481    2.0851 H         1 <0>         0.3785
     38 H14         2.7339   -6.7075    4.3229 H         1 <0>         0.3706
     39 H15         0.5829   -6.8036    5.5903 H         1 <0>         0.3645
     40 H16         0.8437    0.2066   -2.7352 H         1 <0>         0.3868
     41 H17         0.8616    1.7592    0.0033 H         1 <0>         0.3882
     42 O9         -0.4306   -8.5541    7.1281 O.co2     1 <0>        -0.7644
@<TRIPOS>BOND
     1    1    6 ar
     2    1    2 ar
     3    1   28 1
     4    2    3 ar
     5    2   29 1
     6    3    4 ar
     7    3   27 1
     8    4    5 ar
     9    4   26 1
    10    5    6 ar
    11    5   30 1
    12    6    7 1
    13    7    8 2
    14    7   31 1
    15    8    9 1
    16    8   32 1
    17    9   10 2
    18    9   11 1
    19   11   12 1
    20   12   13 1
    21   12   19 1
    22   12   14 1
    23   14   15 1
    24   14   33 1
    25   14   34 1
    26   15   16 1
    27   15   23 1
    28   15   25 1
    29   16   17 1
    30   16   35 1
    31   16   36 1
    32   17   18 1
    33   17   19 1
    34   17   22 1
    35   19   20 1
    36   19   21 1
    37   21   37 1
    38   22   38 1
    39   23   24 2
    40   23   42 1
    41   25   39 1
    42   26   40 1
    43   27   41 1
@<TRIPOS>MOLECULE
ZINC22066339
   48    50     0     0     0
SMALL
USER_CHARGES
(2R,3R,4R,5R,6S)-6-[4-[(E)-2-(3,5-dihydroxyphenyl)vinyl]phenoxy]-3,4,5-trihydroxy-tetrahydropyran-2-carboxylic acid
@<TRIPOS>ATOM
      1 C1          6.3416    1.4549   -3.3065 C.ar      1 <0>        -0.0682
      2 C2          5.4868    1.8265   -2.2916 C.ar      1 <0>        -0.1520
      3 C3          4.1935    1.3216   -2.2501 C.ar      1 <0>         0.1445
      4 C4          3.7571    0.4363   -3.2274 C.ar      1 <0>        -0.1850
      5 C5          4.6028    0.0629   -4.2492 C.ar      1 <0>        -0.0656
      6 C6          5.9053    0.5683   -4.2952 C.ar      1 <0>        -0.1078
      7 C7          6.8156    0.1674   -5.3823 C.2       1 <0>        -0.0697
      8 C8          6.3943   -0.6843   -6.3310 C.2       1 <0>        -0.1416
      9 C9          7.3049   -1.0853   -7.4184 C.ar      1 <0>         0.0393
     10 C10         8.6047   -0.5762   -7.4674 C.ar      1 <0>        -0.2039
     11 C11         9.4580   -0.9600   -8.4881 C.ar      1 <0>         0.1981
     12 C12         9.0201   -1.8401   -9.4676 C.ar      1 <0>        -0.2672
     13 C13         7.7280   -2.3445   -9.4262 C.ar      1 <0>         0.1969
     14 C14         6.8690   -1.9712   -8.4065 C.ar      1 <0>        -0.2492
     15 O1          7.3053   -3.2067  -10.3879 O.3       1 <0>        -0.5120
     16 O2         10.7246   -0.4694   -8.5340 O.3       1 <0>        -0.5063
     17 O3          3.3544    1.6905   -1.2474 O.3       1 <0>        -0.3319
     18 C15         2.0383    1.1341   -1.2649 C.3       1 <0>         0.2464
     19 H1          2.1410    0.0431   -1.3608 H         1 <0>         0.1180
     20 C16         1.2864    1.5618   -0.0018 C.3       1 <0>         0.1264
     21 H2          1.7874    1.1976    0.9073 H         1 <0>         0.0759
     22 C17         1.1461    3.0871    0.0077 C.3       1 <0>         0.0987
     23 H3          2.1222    3.5821    0.1182 H         1 <0>         0.0686
     24 C18         0.4318    3.5311   -1.2725 C.3       1 <0>         0.0942
     25 H4         -0.6108    3.1811   -1.2943 H         1 <0>         0.0622
     26 C19         1.2167    3.0274   -2.4865 C.3       1 <0>         0.0208
     27 H5          2.2431    3.4229   -2.5012 H         1 <0>         0.0688
     28 O4          1.3371    1.6051   -2.4176 O.3       1 <0>        -0.3471
     29 C20         0.4888    3.4095   -3.7495 C.2       1 <0>         0.4772
     30 O5          0.0334    2.5511   -4.4676 O.co2     1 <0>        -0.6066
     31 O6          0.3463    4.7035   -4.0767 O.co2     1 <0>        -0.7502
     32 O7          0.3597    4.9578   -1.3088 O.3       1 <0>        -0.6090
     33 O8          0.3816    3.4897    1.1459 O.3       1 <0>        -0.6016
     34 O9         -0.0110    0.9628    0.0073 O.3       1 <0>        -0.5757
     35 H6          7.3469    1.8482   -3.3381 H         1 <0>         0.1303
     36 H7          5.8231    2.5111   -1.5271 H         1 <0>         0.1314
     37 H8          2.7519    0.0432   -3.1888 H         1 <0>         0.1416
     38 H9          4.2614   -0.6225   -5.0108 H         1 <0>         0.1280
     39 H10         7.8403    0.5659   -5.4166 H         1 <0>         0.1258
     40 H11         5.3696   -1.0828   -6.2967 H         1 <0>         0.1291
     41 H12         8.9449    0.1125   -6.7082 H         1 <0>         0.1315
     42 H13         9.6872   -2.1336  -10.2646 H         1 <0>         0.1287
     43 H14         5.8637   -2.3646   -8.3749 H         1 <0>         0.1295
     44 H15         6.2813   -3.6071  -10.3560 H         1 <0>         0.4359
     45 H16        11.4032   -0.7737   -9.3445 H         1 <0>         0.4327
     46 H17        -0.1223    5.4627   -2.1589 H         1 <0>         0.4310
     47 H18         0.1757    4.5560    1.3209 H         1 <0>         0.4182
     48 H19        -0.7002    1.1561    0.8425 H         1 <0>         0.4205
@<TRIPOS>BOND
     1    1    6 ar
     2    1    2 ar
     3    1   35 1
     4    2    3 ar
     5    2   36 1
     6    3    4 ar
     7    3   17 1
     8    4    5 ar
     9    4   37 1
    10    5    6 ar
    11    5   38 1
    12    6    7 1
    13    7    8 2
    14    7   39 1
    15    8    9 1
    16    8   40 1
    17    9   14 ar
    18    9   10 ar
    19   10   11 ar
    20   10   41 1
    21   11   12 ar
    22   11   16 1
    23   12   13 ar
    24   12   42 1
    25   13   14 ar
    26   13   15 1
    27   14   43 1
    28   15   44 1
    29   16   45 1
    30   17   18 1
    31   18   19 1
    32   18   28 1
    33   18   20 1
    34   20   21 1
    35   20   22 1
    36   20   34 1
    37   22   23 1
    38   22   24 1
    39   22   33 1
    40   24   25 1
    41   24   26 1
    42   24   32 1
    43   26   27 1
    44   26   28 1
    45   26   29 1
    46   29   30 2
    47   29   31 1
    48   32   46 1
    49   33   47 1
    50   34   48 1
@<TRIPOS>MOLECULE
ZINC44185602
   54    54     0     0     0
SMALL
USER_CHARGES

@<TRIPOS>ATOM
      1 C1         -3.5816    1.1021    0.1155 C.3       1 <0>        -0.1566
      2 C2         -2.8672   -0.2227    0.1907 C.2       1 <0>         0.5402
      3 O1         -3.1772   -1.0315    1.0397 O.2       1 <0>        -0.4726
      4 N1         -1.8840   -0.5088   -0.6856 N.am      1 <0>        -0.7425
      5 C3         -1.2484   -1.8468   -0.6747 C.3       1 <0>         0.1870
      6 C4         -0.4355   -1.9587    0.6096 C.3       1 <0>         0.1079
      7 O2         -0.1642   -3.3023    0.9644 O.3       1 <0>        -0.3254
      8 C5         -1.2461   -4.2152    1.0349 C.3       1 <0>         0.2380
      9 C6         -1.9798   -4.2737   -0.3042 C.3       1 <0>        -0.0693
     10 C7         -2.3491   -2.8855   -0.8047 C.3       1 <0>         0.1298
     11 C8         -2.7434   -2.9948   -2.2916 C.3       1 <0>        -0.1800
     12 O3         -3.5115   -2.4295   -0.0888 O.3       1 <0>        -0.4831
     13 C9         -3.2781   -5.0798   -0.1025 C.3       1 <0>        -0.1524
     14 C10        -1.1200   -5.0179   -1.3295 C.3       1 <0>        -0.1431
     15 C11        -0.6933   -5.5956    1.3347 C.2       1 <0>         0.4947
     16 O4          0.4962   -5.7403    1.5598 O.co2     1 <0>        -0.6620
     17 O5         -1.4384   -6.5605    1.3505 O.co2     1 <0>        -0.6738
     18 O6         -2.1621   -3.8713    2.0744 O.3       1 <0>        -0.5457
     19 C12         0.9172   -1.2510    0.3725 C.3       1 <0>        -0.1577
     20 C13        -1.1460   -1.2168    1.7452 C.3       1 <0>         0.0228
     21 H1         -2.1114   -1.6850    1.9370 H         1 <0>         0.2079
     22 C14        -0.2883   -1.2798    3.0107 C.3       1 <0>         0.0863
     23 H2          0.6543   -0.7606    2.8370 H         1 <0>         0.0860
     24 C15        -1.0343   -0.6098    4.1663 C.3       1 <0>         0.0478
     25 O7         -0.1881   -0.5647    5.3170 O.3       1 <0>        -0.5678
     26 O8         -0.0261   -2.6452    3.3409 O.3       1 <0>        -0.5162
     27 O9         -1.3443    0.1482    1.3717 O.3       1 <0>        -0.5301
     28 C16        -0.3046   -1.9056   -1.8833 C.3       1 <0>        -0.1686
     29 H3         -4.3383    1.1518    0.8985 H         1 <0>         0.0757
     30 H4         -2.8633    1.9104    0.2525 H         1 <0>         0.0699
     31 H5         -4.0598    1.2022   -0.8588 H         1 <0>         0.0637
     32 H6         -1.5925    0.1614   -1.3233 H         1 <0>         0.3813
     33 H7         -1.8747   -3.2973   -2.8765 H         1 <0>         0.0636
     34 H8         -3.5336   -3.7370   -2.4044 H         1 <0>         0.0539
     35 H9         -3.1004   -2.0274   -2.6449 H         1 <0>         0.0526
     36 H10        -4.2602   -3.0404   -0.1247 H         1 <0>         0.3228
     37 H11        -3.8993   -4.5870    0.6454 H         1 <0>         0.0632
     38 H12        -3.8211   -5.1362   -1.0459 H         1 <0>         0.0304
     39 H13        -3.0319   -6.0864    0.2357 H         1 <0>         0.0993
     40 H14        -0.9294   -6.0314   -0.9766 H         1 <0>         0.0714
     41 H15        -1.6456   -5.0581   -2.2835 H         1 <0>         0.0513
     42 H16        -0.1730   -4.4938   -1.4582 H         1 <0>         0.0541
     43 H17        -1.8450   -4.0814    2.9634 H         1 <0>         0.3564
     44 H18         0.7423   -0.1991    0.1466 H         1 <0>         0.0563
     45 H19         1.5320   -1.3327    1.2688 H         1 <0>         0.0661
     46 H20         1.4317   -1.7219   -0.4652 H         1 <0>         0.0688
     47 H21        -1.3123    0.4045    3.8798 H         1 <0>         0.0538
     48 H22        -1.9331   -1.1811    4.3984 H         1 <0>         0.0479
     49 H23        -0.5970   -0.1518    6.0899 H         1 <0>         0.3715
     50 H24        -0.7979   -3.1250    3.6716 H         1 <0>         0.3597
     51 H25        -0.5312    0.6113    1.1277 H         1 <0>         0.3538
     52 H26         0.4473   -1.1214   -1.7955 H         1 <0>         0.0682
     53 H27         0.1865   -2.8781   -1.9138 H         1 <0>         0.0794
     54 H28        -0.8774   -1.7589   -2.7990 H         1 <0>         0.0637
@<TRIPOS>BOND
     1    1    2 1
     2    1   29 1
     3    1   30 1
     4    1   31 1
     5    2    3 2
     6    2    4 am
     7    4    5 1
     8    4   32 1
     9    5   10 1
    10    5    6 1
    11    5   28 1
    12    6    7 1
    13    6   19 1
    14    6   20 1
    15    7    8 1
    16    8    9 1
    17    8   15 1
    18    8   18 1
    19    9   10 1
    20    9   13 1
    21    9   14 1
    22   10   11 1
    23   10   12 1
    24   11   33 1
    25   11   34 1
    26   11   35 1
    27   12   36 1
    28   13   37 1
    29   13   38 1
    30   13   39 1
    31   14   40 1
    32   14   41 1
    33   14   42 1
    34   15   16 2
    35   15   17 1
    36   18   43 1
    37   19   44 1
    38   19   45 1
    39   19   46 1
    40   20   21 1
    41   20   22 1
    42   20   27 1
    43   22   23 1
    44   22   24 1
    45   22   26 1
    46   24   25 1
    47   24   47 1
    48   24   48 1
    49   25   49 1
    50   26   50 1
    51   27   51 1
    52   28   52 1
    53   28   53 1
    54   28   54 1
@<TRIPOS>MOLECULE
ZINC13637658
   39    40     0     0     0
SMALL
USER_CHARGES

@<TRIPOS>ATOM
      1 C1         -1.1574    1.4749   -1.7509 C.3       1 <0>        -0.1707
      2 C2         -1.1300   -0.0319   -1.7518 C.2       1 <0>         0.5072
      3 O1         -2.0359   -0.6546   -2.2644 O.2       1 <0>        -0.5259
      4 N1         -0.0989   -0.6875   -1.1830 N.am      1 <0>        -0.6728
      5 C3         -0.1176   -2.0857   -1.1013 C.ar      1 <0>         0.1180
      6 C4          0.4304   -2.7240    0.0037 C.ar      1 <0>        -0.1252
      7 C5          0.4120   -4.1020    0.0842 C.ar      1 <0>        -0.1290
      8 C6         -0.1544   -4.8499   -0.9397 C.ar      1 <0>         0.1399
      9 C7         -0.7023   -4.2115   -2.0446 C.ar      1 <0>        -0.1018
     10 C8         -0.6890   -2.8334   -2.1225 C.ar      1 <0>        -0.0994
     11 N2         -0.1726   -6.2481   -0.8581 N.am      1 <0>        -0.6769
     12 C9         -0.0284   -6.9901   -1.9740 C.2       1 <0>         0.5156
     13 O2          0.0366   -6.4493   -3.0577 O.2       1 <0>        -0.5032
     14 C10         0.0520   -8.4917   -1.8751 C.3       1 <0>        -0.1032
     15 C11         0.2130   -9.0871   -3.2753 C.3       1 <0>        -0.1267
     16 H1         -0.5772   -8.7446   -3.9435 H         1 <0>         0.1313
     17 C12         0.2829  -10.6094   -3.2290 C.2       1 <0>         0.5294
     18 O3         -0.6234  -11.3128   -2.8275 O.2       1 <0>        -0.5408
     19 N3          1.4242  -11.0778   -3.6683 N.2       1 <0>        -0.7476
     20 C13         2.4152  -10.3255   -4.1065 C.2       1 <0>         0.4276
     21 S1          1.8804   -8.7339   -3.9689 S.3       1 <0>        -0.1133
     22 N4          3.6288  -10.7506   -4.5766 N.2       1 <0>        -0.6173
     23 C14         3.8807  -12.1009   -4.7156 C.2       1 <0>         0.6014
     24 N5          4.7669  -12.5126   -5.5762 N.2       1 <0>        -0.8346
     25 N6          3.1960  -13.0106   -3.9455 N.pl3     1 <0>        -0.8610
     26 H2         -1.6650    1.8285   -0.8535 H         1 <0>         0.0963
     27 H3         -0.1366    1.8568   -1.7653 H         1 <0>         0.0819
     28 H4         -1.6903    1.8291   -2.6333 H         1 <0>         0.0963
     29 H5          0.6561   -0.1910   -0.8302 H         1 <0>         0.4100
     30 H6          0.8712   -2.1424    0.7998 H         1 <0>         0.1274
     31 H7          0.8384   -4.5984    0.9433 H         1 <0>         0.1297
     32 H8         -1.1425   -4.7932   -2.8410 H         1 <0>         0.1438
     33 H9         -1.1195   -2.3367   -2.9795 H         1 <0>         0.1399
     34 H10        -0.2890   -6.6823    0.0014 H         1 <0>         0.4111
     35 H11         0.9087   -8.7701   -1.2613 H         1 <0>         0.1050
     36 H12        -0.8611   -8.8753   -1.4200 H         1 <0>         0.1144
     37 H13         2.4893  -12.7099   -3.3530 H         1 <0>         0.4139
     38 H14         3.4197  -13.9532   -3.9944 H         1 <0>         0.3802
     39 H15         5.2500  -11.8707   -6.1197 H         1 <0>         0.3290
@<TRIPOS>BOND
     1    1    2 1
     2    1   26 1
     3    1   27 1
     4    1   28 1
     5    2    3 2
     6    2    4 am
     7    4    5 1
     8    4   29 1
     9    5   10 ar
    10    5    6 ar
    11    6    7 ar
    12    6   30 1
    13    7    8 ar
    14    7   31 1
    15    8    9 ar
    16    8   11 1
    17    9   10 ar
    18    9   32 1
    19   10   33 1
    20   11   12 am
    21   11   34 1
    22   12   13 2
    23   12   14 1
    24   14   15 1
    25   14   35 1
    26   14   36 1
    27   15   16 1
    28   15   21 1
    29   15   17 1
    30   17   18 2
    31   17   19 1
    32   19   20 2
    33   20   21 1
    34   20   22 1
    35   22   23 1
    36   23   24 2
    37   23   25 1
    38   24   39 1
    39   25   37 1
    40   25   38 1
@<TRIPOS>MOLECULE
ZINC65748606
   48    50     0     0     0
SMALL
USER_CHARGES

@<TRIPOS>ATOM
      1 C1          0.5302   -1.2022   -2.2121 C.ar      1 <0>        -0.0701
      2 C2          1.5820   -0.6851   -2.9366 C.ar      1 <0>        -0.1375
      3 C3          1.8887    0.6670   -2.8514 C.ar      1 <0>         0.1120
      4 C4          1.1378    1.5040   -2.0360 C.ar      1 <0>        -0.1523
      5 C5          0.0843    0.9960   -1.3073 C.ar      1 <0>        -0.0984
      6 C6         -0.2287   -0.3638   -1.3904 C.ar      1 <0>        -0.0763
      7 C7         -1.3548   -0.9117   -0.6141 C.2       1 <0>        -0.1019
      8 C8         -1.2697   -2.1432   -0.0857 C.2       1 <0>        -0.1043
      9 C9          0.0158   -2.8641   -0.1001 C.ar      1 <0>        -0.0192
     10 C10         1.2105   -2.1707    0.1083 C.ar      1 <0>        -0.1596
     11 C11         2.4154   -2.8523    0.0938 C.ar      1 <0>         0.1431
     12 C12         2.4377   -4.2223   -0.1273 C.ar      1 <0>        -0.2067
     13 C13         1.2539   -4.9154   -0.3352 C.ar      1 <0>         0.1489
     14 C14         0.0430   -4.2436   -0.3164 C.ar      1 <0>        -0.1536
     15 O1          1.2822   -6.2568   -0.5521 O.3       1 <0>        -0.3317
     16 C15         2.5647   -6.8869   -0.5524 C.3       1 <0>         0.2023
     17 H1          3.0805   -6.6621    0.3811 H         1 <0>         0.1072
     18 C16         2.3892   -8.4018   -0.6867 C.3       1 <0>         0.1112
     19 H2          1.7647   -8.7697    0.1274 H         1 <0>         0.0703
     20 C17         1.7178   -8.7133   -2.0278 C.3       1 <0>         0.1214
     21 H3          0.7222   -8.2702   -2.0488 H         1 <0>         0.0833
     22 C18         2.5651   -8.1237   -3.1595 C.3       1 <0>         0.0677
     23 H4          2.0665   -8.2928   -4.1139 H         1 <0>         0.0626
     24 C19         2.7339   -6.6196   -2.9298 C.3       1 <0>        -0.0048
     25 H5          1.7578   -6.1354   -2.9606 H         1 <0>         0.0599
     26 O2          3.3354   -6.3985   -1.6523 O.3       1 <0>        -0.3277
     27 C20         3.6155   -6.0424   -4.0071 C.2       1 <0>         0.5058
     28 O3          3.2409   -6.0444   -5.1674 O.co2     1 <0>        -0.6896
     29 O4          4.7032   -5.5734   -3.7185 O.co2     1 <0>        -0.6609
     30 O5          3.8481   -8.7529   -3.1731 O.3       1 <0>        -0.5291
     31 O6          1.6146  -10.1290   -2.1933 O.3       1 <0>        -0.5474
     32 O7          3.6679   -9.0374   -0.6323 O.3       1 <0>        -0.5028
     33 O8          3.5784   -2.1788    0.2959 O.3       1 <0>        -0.4896
     34 O9          2.9267    1.1723   -3.5676 O.3       1 <0>        -0.4980
     35 H6          0.2897   -2.2527   -2.2824 H         1 <0>         0.1280
     36 H7          2.1692   -1.3321   -3.5714 H         1 <0>         0.1320
     37 H8          1.3802    2.5545   -1.9727 H         1 <0>         0.1256
     38 H9         -0.4988    1.6475   -0.6733 H         1 <0>         0.1251
     39 H10        -2.2485   -0.3228   -0.4700 H         1 <0>         0.1283
     40 H11        -2.1432   -2.6054    0.3498 H         1 <0>         0.1306
     41 H12         1.1943   -1.1045    0.2801 H         1 <0>         0.1296
     42 H13         3.3796   -4.7506   -0.1379 H         1 <0>         0.1445
     43 H14        -0.8783   -4.7848   -0.4736 H         1 <0>         0.1322
     44 H15         4.4385   -8.4274   -3.8663 H         1 <0>         0.3748
     45 H16         1.1980  -10.3986   -3.0232 H         1 <0>         0.3753
     46 H17         4.1515   -8.8784    0.1898 H         1 <0>         0.3655
     47 H18         3.8456   -2.1250    1.2237 H         1 <0>         0.3858
     48 H19         2.6810    1.4849   -4.4491 H         1 <0>         0.3886
@<TRIPOS>BOND
     1    1    6 ar
     2    1    2 ar
     3    1   35 1
     4    2    3 ar
     5    2   36 1
     6    3    4 ar
     7    3   34 1
     8    4    5 ar
     9    4   37 1
    10    5    6 ar
    11    5   38 1
    12    6    7 1
    13    7    8 2
    14    7   39 1
    15    8    9 1
    16    8   40 1
    17    9   14 ar
    18    9   10 ar
    19   10   11 ar
    20   10   41 1
    21   11   12 ar
    22   11   33 1
    23   12   13 ar
    24   12   42 1
    25   13   14 ar
    26   13   15 1
    27   14   43 1
    28   15   16 1
    29   16   17 1
    30   16   26 1
    31   16   18 1
    32   18   19 1
    33   18   20 1
    34   18   32 1
    35   20   21 1
    36   20   22 1
    37   20   31 1
    38   22   23 1
    39   22   24 1
    40   22   30 1
    41   24   25 1
    42   24   26 1
    43   24   27 1
    44   27   28 2
    45   27   29 1
    46   30   44 1
    47   31   45 1
    48   32   46 1
    49   33   47 1
    50   34   48 1
@<TRIPOS>MOLECULE
ZINC04097583
   38    38     0     0     0
SMALL
USER_CHARGES
3,4,5-trihydroxy-2-(hydroxymethyl)-6-(1-sulfooxyiminobut-3-enylsulfanyl)tetrahydropyran
@<TRIPOS>ATOM
      1 C1         -1.8607    2.8767    0.6776 C.2       1 <0>        -0.1864
      2 C2         -1.4474    1.9636   -0.1659 C.2       1 <0>        -0.1375
      3 C3         -0.0192    1.4848   -0.1180 C.3       1 <0>        -0.0403
      4 C4          0.0031   -0.0148    0.0300 C.2       1 <0>         0.1172
      5 N1         -1.1069   -0.6746    0.0946 N.2       1 <0>        -0.1866
      6 O1         -1.0885   -2.0902    0.1233 O.3       1 <0>        -0.6604
      7 S1         -2.4695   -2.7284    0.0788 S.o2      1 <0>         2.7826
      8 O2         -2.2807   -4.1205    0.2920 O.2       1 <0>        -1.0596
      9 O3         -3.3092   -1.9376    0.9088 O.2       1 <0>        -1.0715
     10 S2          1.5419   -0.8689    0.1149 S.3       1 <0>        -0.0308
     11 C5          2.6817    0.5371    0.1228 C.3       1 <0>         0.0429
     12 H1          2.3070    1.3051    0.7995 H         1 <0>         0.1000
     13 C6          4.0626    0.0723    0.5928 C.3       1 <0>         0.0660
     14 H2          4.4199   -0.7249   -0.0591 H         1 <0>         0.0862
     15 C7          5.0360    1.2538    0.5393 C.3       1 <0>         0.0890
     16 H3          4.7051    2.0303    1.2290 H         1 <0>         0.0777
     17 C8          5.0650    1.8132   -0.8864 C.3       1 <0>         0.0932
     18 H4          5.4430    1.0519   -1.5688 H         1 <0>         0.0793
     19 C9          3.6454    2.2108   -1.2992 C.3       1 <0>         0.0930
     20 H5          3.2834    3.0009   -0.6414 H         1 <0>         0.0822
     21 O4          2.7852    1.0742   -1.1974 O.3       1 <0>        -0.3350
     22 C10         3.6563    2.7146   -2.7438 C.3       1 <0>         0.0916
     23 O5          2.3557    3.1942   -3.0909 O.3       1 <0>        -0.5643
     24 O6          5.9147    2.9612   -0.9318 O.3       1 <0>        -0.5518
     25 O7          6.3441    0.8126    0.9082 O.3       1 <0>        -0.5581
     26 O8          3.9725   -0.4119    1.9342 O.3       1 <0>        -0.5550
     27 H6         -1.1780    3.2863    1.4074 H         1 <0>         0.0930
     28 H7         -2.8841    3.2198    0.6433 H         1 <0>         0.1035
     29 H8         -2.1301    1.5540   -0.8957 H         1 <0>         0.1241
     30 H9          0.4888    1.9413    0.7314 H         1 <0>         0.0930
     31 H10         0.4895    1.7665   -1.0399 H         1 <0>         0.1246
     32 H11         4.3798    3.5241   -2.8408 H         1 <0>         0.0736
     33 H12         3.9326    1.8984   -3.4112 H         1 <0>         0.0565
     34 H13         2.2887    3.5299   -3.9953 H         1 <0>         0.3838
     35 H14         6.8303    2.7831   -0.6770 H         1 <0>         0.3919
     36 H15         6.3969    0.4403    1.7991 H         1 <0>         0.3943
     37 H16         3.3682   -1.1589    2.0430 H         1 <0>         0.3956
     38 O9         -2.9915   -2.5728   -1.3424 O.3       1 <0>        -1.0973
@<TRIPOS>BOND
     1    1    2 2
     2    1   27 1
     3    1   28 1
     4    2    3 1
     5    2   29 1
     6    3    4 1
     7    3   30 1
     8    3   31 1
     9    4    5 2
    10    4   10 1
    11    5    6 1
    12    6    7 1
    13    7    8 2
    14    7    9 2
    15    7   38 1
    16   10   11 1
    17   11   12 1
    18   11   21 1
    19   11   13 1
    20   13   14 1
    21   13   15 1
    22   13   26 1
    23   15   16 1
    24   15   17 1
    25   15   25 1
    26   17   18 1
    27   17   19 1
    28   17   24 1
    29   19   20 1
    30   19   21 1
    31   19   22 1
    32   22   23 1
    33   22   32 1
    34   22   33 1
    35   23   34 1
    36   24   35 1
    37   25   36 1
    38   26   37 1
@<TRIPOS>MOLECULE
ZINC19593679
   39    40     0     0     0
SMALL
USER_CHARGES
4-(benzylsulfonylamino)-6-chloro-benzene-1,3-disulfonamide
@<TRIPOS>ATOM
      1 C1          5.4327   -4.6091    4.5697 C.ar      1 <0>        -0.1249
      2 C2          5.6011   -3.3014    4.1542 C.ar      1 <0>        -0.1190
      3 C3          4.5864   -2.6570    3.4715 C.ar      1 <0>        -0.1115
      4 C4          3.4032   -3.3201    3.2047 C.ar      1 <0>        -0.0713
      5 C5          3.2326   -4.6259    3.6252 C.ar      1 <0>        -0.1107
      6 C6          4.2495   -5.2722    4.3029 C.ar      1 <0>        -0.1190
      7 C7          2.2969   -2.6175    2.4608 C.3       1 <0>        -0.6134
      8 S1          2.4983   -2.8901    0.6787 S.o2      1 <0>         2.5613
      9 O1          2.2690   -4.2567    0.3637 O.2       1 <0>        -0.9673
     10 O2          3.6630   -2.2243    0.2103 O.2       1 <0>        -1.0128
     11 N1          1.2366   -2.0776   -0.0214 N.2       1 <0>        -1.0772
     12 C8          1.1051   -0.6994    0.1633 C.ar      1 <0>         0.3805
     13 C9          2.2359    0.1037    0.2392 C.ar      1 <0>        -0.2515
     14 C10         2.1021    1.4670    0.4215 C.ar      1 <0>         0.1189
     15 C11         0.8427    2.0317    0.5284 C.ar      1 <0>        -0.7503
     16 C12        -0.2841    1.2343    0.4530 C.ar      1 <0>         0.1267
     17 C13        -0.1568   -0.1290    0.2709 C.ar      1 <0>        -0.7255
     18 S2         -1.5941   -1.1436    0.1746 S.o2      1 <0>         2.6591
     19 O3         -1.3817   -2.2340    1.0608 O.2       1 <0>        -0.9778
     20 O4         -2.7129   -0.2750    0.2899 O.2       1 <0>        -0.9812
     21 N2         -1.6436   -1.7787   -1.3540 N.pl3     1 <0>        -1.1664
     22 S3          0.6756    3.7703    0.7608 S.o2      1 <0>         2.6381
     23 O5          1.5022    4.3916   -0.2138 O.2       1 <0>        -0.9802
     24 O6         -0.7171    4.0348    0.8591 O.2       1 <0>        -0.9576
     25 N3          1.3314    4.1320    2.2378 N.pl3     1 <0>        -1.1650
     26 Cl1         3.5142    2.4722    0.5166 Cl        1 <0>        -0.0651
     27 H1          6.2257   -5.1127    5.1025 H         1 <0>         0.1219
     28 H2          6.5255   -2.7834    4.3627 H         1 <0>         0.1241
     29 H3          4.7180   -1.6354    3.1469 H         1 <0>         0.1272
     30 H4          2.3066   -5.1425    3.4205 H         1 <0>         0.1292
     31 H5          4.1180   -6.2939    4.6272 H         1 <0>         0.1246
     32 H6          1.3251   -3.0177    2.7854 H         1 <0>         0.1411
     33 H7          2.3390   -1.5391    2.6738 H         1 <0>         0.1269
     34 H8          3.2185   -0.3368    0.1562 H         1 <0>         0.1758
     35 H9         -1.2653    1.6785    0.5323 H         1 <0>         0.1603
     36 H10        -2.5306   -2.4214   -1.4555 H         1 <0>         0.3972
     37 H11        -0.7365   -2.3747   -1.5330 H         1 <0>         0.4264
     38 H12         1.2466    5.2132    2.4218 H         1 <0>         0.4063
     39 H13         2.3919    3.8402    2.2495 H         1 <0>         0.4021
@<TRIPOS>BOND
     1    1    6 ar
     2    1    2 ar
     3    1   27 1
     4    2    3 ar
     5    2   28 1
     6    3    4 ar
     7    3   29 1
     8    4    5 ar
     9    4    7 1
    10    5    6 ar
    11    5   30 1
    12    6   31 1
    13    7    8 1
    14    7   32 1
    15    7   33 1
    16    8    9 2
    17    8   10 2
    18    8   11 1
    19   11   12 1
    20   12   17 ar
    21   12   13 ar
    22   13   14 ar
    23   13   34 1
    24   14   15 ar
    25   14   26 1
    26   15   16 ar
    27   15   22 1
    28   16   17 ar
    29   16   35 1
    30   17   18 1
    31   18   19 2
    32   18   20 2
    33   18   21 1
    34   21   36 1
    35   21   37 1
    36   22   23 2
    37   22   24 2
    38   22   25 1
    39   25   38 1
    40   25   39 1
@<TRIPOS>MOLECULE
ZINC35051186
   47    48     0     0     0
SMALL
USER_CHARGES

@<TRIPOS>ATOM
      1 C1         -1.4790    1.0593    1.2702 C.3       1 <0>         0.0436
      2 O1         -0.2989    0.3894    0.8223 O.3       1 <0>        -0.3569
      3 C2          0.3829   -0.3352    1.8480 C.3       1 <0>         0.0958
      4 H1          0.1437    0.0968    2.8197 H         1 <0>         0.0786
      5 C3         -0.0573   -1.8021    1.8175 C.3       1 <0>         0.0934
      6 H2          0.1355   -2.2201    0.8295 H         1 <0>         0.0674
      7 C4          0.7367   -2.5839    2.8685 C.3       1 <0>         0.0737
      8 H3          0.4695   -3.6394    2.8160 H         1 <0>         0.0591
      9 C5          2.2335   -2.4206    2.5918 C.3       1 <0>         0.2131
     10 H4          2.4709   -2.8437    1.6157 H         1 <0>         0.0489
     11 O2          2.5701   -1.0318    2.6039 O.3       1 <0>        -0.3319
     12 C6          1.8935   -0.2575    1.6115 C.3       1 <0>         0.0365
     13 H5          2.1273   -0.6515    0.6225 H         1 <0>         0.0466
     14 C7          2.3427    1.1783    1.6998 C.2       1 <0>         0.5068
     15 O3          3.0839    1.5308    2.6014 O.co2     1 <0>        -0.6485
     16 O4          1.9650    1.9874    0.8696 O.co2     1 <0>        -0.6919
     17 O5          2.9818   -3.1014    3.6010 O.3       1 <0>        -0.3035
     18 C8          4.3698   -3.2491    3.2952 C.3       1 <0>         0.0942
     19 H6          4.6680   -2.4850    2.5773 H         1 <0>         0.0882
     20 C9          4.6174   -4.6375    2.6974 C.3       1 <0>         0.0858
     21 H7          5.6667   -4.7325    2.4182 H         1 <0>         0.0720
     22 C10         4.2668   -5.7012    3.7424 C.3       1 <0>         0.0734
     23 H8          4.4923   -6.6907    3.3448 H         1 <0>         0.0525
     24 C11         5.0957   -5.4565    5.0060 C.3       1 <0>         0.2126
     25 H9          6.1551   -5.5598    4.7715 H         1 <0>         0.0417
     26 O6          4.8417   -4.1371    5.4927 O.3       1 <0>        -0.3476
     27 C12         5.1948   -3.0976    4.5759 C.3       1 <0>         0.0343
     28 H10         6.2555   -3.1700    4.3357 H         1 <0>         0.0555
     29 C13         4.9112   -1.7558    5.2006 C.2       1 <0>         0.5165
     30 O7          4.3534   -1.6930    6.2829 O.co2     1 <0>        -0.6747
     31 O8          5.2395   -0.7331    4.6237 O.co2     1 <0>        -0.6534
     32 O9          4.7336   -6.4113    6.0057 O.3       1 <0>        -0.3773
     33 C14         5.5298   -6.3428    7.1904 C.3       1 <0>         0.0355
     34 O10         2.8757   -5.6194    4.0590 O.3       1 <0>        -0.5143
     35 O11         3.7971   -4.8130    1.5404 O.3       1 <0>        -0.5402
     36 O12         0.4325   -2.0785    4.1701 O.3       1 <0>        -0.5417
     37 O13        -1.4536   -1.8883    2.1089 O.3       1 <0>        -0.5477
     38 H11        -1.2322    1.7058    2.1125 H         1 <0>         0.0350
     39 H12        -1.8860    1.6609    0.4575 H         1 <0>         0.0699
     40 H13        -2.2188    0.3223    1.5825 H         1 <0>         0.0394
     41 H14         6.5745   -6.5229    6.9369 H         1 <0>         0.0341
     42 H15         5.4299   -5.3543    7.6386 H         1 <0>         0.0614
     43 H16         5.1923   -7.0990    7.8992 H         1 <0>         0.0802
     44 H17         2.5832   -6.2656    4.7161 H         1 <0>         0.3685
     45 H18         3.9029   -5.6724    1.1100 H         1 <0>         0.3645
     46 H19         0.9013   -2.5286    4.8862 H         1 <0>         0.3876
     47 H20        -1.8009   -2.7908    2.1065 H         1 <0>         0.3634
@<TRIPOS>BOND
     1    1    2 1
     2    1   38 1
     3    1   39 1
     4    1   40 1
     5    2    3 1
     6    3    4 1
     7    3   12 1
     8    3    5 1
     9    5    6 1
    10    5    7 1
    11    5   37 1
    12    7    8 1
    13    7    9 1
    14    7   36 1
    15    9   10 1
    16    9   11 1
    17    9   17 1
    18   11   12 1
    19   12   13 1
    20   12   14 1
    21   14   15 2
    22   14   16 1
    23   17   18 1
    24   18   19 1
    25   18   27 1
    26   18   20 1
    27   20   21 1
    28   20   22 1
    29   20   35 1
    30   22   23 1
    31   22   24 1
    32   22   34 1
    33   24   25 1
    34   24   26 1
    35   24   32 1
    36   26   27 1
    37   27   28 1
    38   27   29 1
    39   29   30 2
    40   29   31 1
    41   32   33 1
    42   33   41 1
    43   33   42 1
    44   33   43 1
    45   34   44 1
    46   35   45 1
    47   36   46 1
    48   37   47 1
@<TRIPOS>MOLECULE
ZINC44963195
   54    56     0     0     0
SMALL
USER_CHARGES

@<TRIPOS>ATOM
      1 C1         -0.0187    1.5258    0.0104 C.3       1 <0>        -0.1384
      2 C2          0.0021   -0.0041    0.0020 C.3       1 <0>        -0.0431
      3 H1         -1.0205   -0.3814    0.0098 H         1 <0>         0.1148
      4 C3          0.7074   -0.4901   -1.2379 C.ar      1 <0>        -0.0699
      5 C4          2.0260   -0.1416   -1.4645 C.ar      1 <0>        -0.0814
      6 C5          2.6729   -0.5873   -2.6017 C.ar      1 <0>        -0.1161
      7 C6          2.0016   -1.3821   -3.5123 C.ar      1 <0>        -0.1058
      8 C7          0.6838   -1.7312   -3.2852 C.ar      1 <0>        -0.1133
      9 C8          0.0379   -1.2889   -2.1456 C.ar      1 <0>        -0.0921
     10 C9         -0.0481   -2.5971   -4.2780 C.3       1 <0>         0.1930
     11 H2         -1.1197   -2.4135   -4.1997 H         1 <0>         0.1159
     12 C10         0.2358   -4.0477   -3.9846 C.ar      1 <0>        -0.1137
     13 C11         1.4223   -4.6187   -4.4055 C.ar      1 <0>        -0.1110
     14 C12         1.6827   -5.9493   -4.1364 C.ar      1 <0>        -0.1175
     15 C13         0.7569   -6.7089   -3.4460 C.ar      1 <0>        -0.1166
     16 C14        -0.4292   -6.1377   -3.0243 C.ar      1 <0>        -0.1122
     17 C15        -0.6878   -4.8060   -3.2897 C.ar      1 <0>        -0.1049
     18 O1          0.3935   -2.2833   -5.6004 O.3       1 <0>        -0.5479
     19 C16         0.7309   -0.5033    1.2229 C.2       1 <0>         0.4605
     20 O2          1.7215   -1.1839    1.0989 O.2       1 <0>        -0.4720
     21 O3          0.2797   -0.1918    2.4481 O.3       1 <0>        -0.3640
     22 C17         1.0198   -0.6989    3.5604 C.3       1 <0>         0.2164
     23 H3          2.0626   -0.3941    3.4724 H         1 <0>         0.1074
     24 C18         0.4331   -0.1425    4.8603 C.3       1 <0>         0.0650
     25 H4          1.0219   -0.4964    5.7066 H         1 <0>         0.1017
     26 C19        -1.0135   -0.6245    5.0060 C.3       1 <0>         0.1287
     27 H5         -1.6137   -0.2296    4.1863 H         1 <0>         0.0786
     28 C20        -1.0363   -2.1556    4.9665 C.3       1 <0>         0.1035
     29 H6         -2.0674   -2.5059    5.0139 H         1 <0>         0.0793
     30 C21        -0.3929   -2.6343    3.6624 C.3       1 <0>        -0.0103
     31 H7         -0.9759   -2.2728    2.8153 H         1 <0>         0.0613
     32 O4          0.9399   -2.1256    3.5754 O.3       1 <0>        -0.3224
     33 C22        -0.3583   -4.1408    3.6424 C.2       1 <0>         0.5059
     34 O5         -1.3998   -4.7742    3.6163 O.co2     1 <0>        -0.6847
     35 O6          0.7111   -4.7262    3.6525 O.co2     1 <0>        -0.6582
     36 O7         -0.3045   -2.6730    6.0795 O.3       1 <0>        -0.5522
     37 O8         -1.5462   -0.1688    6.2512 O.3       1 <0>        -0.5480
     38 O9          0.4604    1.2858    4.8237 O.3       1 <0>        -0.5570
     39 H8          1.0039    1.9031    0.0027 H         1 <0>         0.0613
     40 H9         -0.5459    1.8868   -0.8726 H         1 <0>         0.0726
     41 H10        -0.5289    1.8773    0.9072 H         1 <0>         0.0756
     42 H11         2.5504    0.4793   -0.7532 H         1 <0>         0.1194
     43 H12         3.7028   -0.3145   -2.7791 H         1 <0>         0.1237
     44 H13         2.5069   -1.7298   -4.4012 H         1 <0>         0.1171
     45 H14        -0.9907   -1.5648   -1.9663 H         1 <0>         0.1247
     46 H15         2.1457   -4.0252   -4.9449 H         1 <0>         0.1157
     47 H16         2.6094   -6.3955   -4.4659 H         1 <0>         0.1221
     48 H17         0.9601   -7.7487   -3.2363 H         1 <0>         0.1231
     49 H18        -1.1527   -6.7313   -2.4852 H         1 <0>         0.1262
     50 H19        -1.6128   -4.3587   -2.9570 H         1 <0>         0.1237
     51 H20         1.3397   -2.4233   -5.7426 H         1 <0>         0.3721
     52 H21        -0.2774   -3.6389    6.1177 H         1 <0>         0.3861
     53 H22        -1.5558    0.7935    6.3463 H         1 <0>         0.3771
     54 H23         1.3470    1.6599    4.7282 H         1 <0>         0.3801
@<TRIPOS>BOND
     1    1    2 1
     2    1   39 1
     3    1   40 1
     4    1   41 1
     5    2    3 1
     6    2    4 1
     7    2   19 1
     8    4    9 ar
     9    4    5 ar
    10    5    6 ar
    11    5   42 1
    12    6    7 ar
    13    6   43 1
    14    7    8 ar
    15    7   44 1
    16    8    9 ar
    17    8   10 1
    18    9   45 1
    19   10   11 1
    20   10   12 1
    21   10   18 1
    22   12   17 ar
    23   12   13 ar
    24   13   14 ar
    25   13   46 1
    26   14   15 ar
    27   14   47 1
    28   15   16 ar
    29   15   48 1
    30   16   17 ar
    31   16   49 1
    32   17   50 1
    33   18   51 1
    34   19   20 2
    35   19   21 1
    36   21   22 1
    37   22   23 1
    38   22   32 1
    39   22   24 1
    40   24   25 1
    41   24   26 1
    42   24   38 1
    43   26   27 1
    44   26   28 1
    45   26   37 1
    46   28   29 1
    47   28   30 1
    48   28   36 1
    49   30   31 1
    50   30   32 1
    51   30   33 1
    52   33   34 2
    53   33   35 1
    54   36   52 1
    55   37   53 1
    56   38   54 1
@<TRIPOS>MOLECULE
ZINC63230082
   44    45     0     0     0
SMALL
USER_CHARGES

@<TRIPOS>ATOM
      1 C1          0.6718    1.1940    0.3079 C.3       1 <0>        -0.1468
      2 C2          0.4063   -0.3125    0.2836 C.3       1 <0>        -0.1430
      3 C3         -1.0832   -0.5640    0.0406 C.3       1 <0>         0.1422
      4 N1         -1.3375   -2.0065    0.0173 N.am      1 <0>        -0.6058
      5 C4         -1.2551   -2.7621   -1.2435 C.3       1 <0>         0.4137
      6 H1         -1.9624   -2.3215   -1.9461 H         1 <0>         0.0207
      7 C5         -1.5334   -4.2503   -1.1716 C.2       1 <0>        -0.5010
      8 C6         -1.8415   -4.7812    0.0644 C.2       1 <0>         0.5139
      9 O1         -2.0967   -6.1001    0.1799 O.3       1 <0>        -0.6449
     10 N2         -1.8899   -3.9826    1.1726 N.am      1 <0>        -0.5582
     11 C7         -1.6455   -2.6669    1.1496 C.2       1 <0>         0.7145
     12 O2         -1.7088   -2.0429    2.1909 O.2       1 <0>        -0.5988
     13 C8         -2.2229   -4.6021    2.4577 C.3       1 <0>         0.0910
     14 C9         -1.4807   -5.0523   -2.3108 C.2       1 <0>         0.4428
     15 O3         -1.3192   -4.5452   -3.4045 O.2       1 <0>        -0.5634
     16 C10        -1.6238   -6.5474   -2.1872 C.3       1 <0>        -0.1157
     17 S1         -1.4971   -7.3049   -3.8305 S.3       1 <0>         0.0503
     18 C11        -1.6817   -9.0295   -3.5203 C.2       1 <0>         0.4244
     19 N3         -1.8659   -9.4065   -2.2663 N.2       1 <0>        -0.6464
     20 C12        -2.0163  -10.6868   -1.9301 C.2       1 <0>         0.5233
     21 O4         -2.1855  -11.0228   -0.7740 O.2       1 <0>        -0.4785
     22 C13        -1.9678  -11.7083   -3.0517 C.3       1 <0>        -0.2304
     23 C14        -1.7511  -11.1541   -4.4476 C.2       1 <0>         0.4899
     24 N4         -1.6299   -9.8514   -4.5694 N.2       1 <0>        -0.6222
     25 N5         -1.6904  -11.9679   -5.5238 N.pl3     1 <0>        -0.7876
     26 N6          0.0953   -2.5807   -1.7927 N.3       1 <0>        -0.8565
     27 H2          1.7330    1.3732    0.4810 H         1 <0>         0.0529
     28 H3          0.3810    1.6297   -0.6480 H         1 <0>         0.0517
     29 H4          0.0907    1.6525    1.1080 H         1 <0>         0.0520
     30 H5          0.9874   -0.7710   -0.5166 H         1 <0>         0.0778
     31 H6          0.6971   -0.7482    1.2394 H         1 <0>         0.0639
     32 H7         -1.6643   -0.1055    0.8408 H         1 <0>         0.0806
     33 H8         -1.3741   -0.1283   -0.9152 H         1 <0>         0.0697
     34 H9         -2.3892   -5.6697    2.3141 H         1 <0>         0.0976
     35 H10        -1.3999   -4.4534    3.1568 H         1 <0>         0.0557
     36 H11        -3.1272   -4.1441    2.8584 H         1 <0>         0.0554
     37 H12        -0.8328   -6.9362   -1.5459 H         1 <0>         0.1172
     38 H13        -2.5943   -6.7847   -1.7515 H         1 <0>         0.1287
     39 H14        -1.1632  -12.4116   -2.8365 H         1 <0>         0.1275
     40 H15        -2.9064  -12.2624   -3.0478 H         1 <0>         0.1277
     41 H16        -1.7859  -12.9267   -5.4128 H         1 <0>         0.4178
     42 H17        -1.5512  -11.5934   -6.4077 H         1 <0>         0.4185
     43 H18         0.2289   -3.1455   -2.6180 H         1 <0>         0.3591
     44 H19         0.2790   -1.6077   -1.9867 H         1 <0>         0.3188
@<TRIPOS>BOND
     1    1    2 1
     2    1   27 1
     3    1   28 1
     4    1   29 1
     5    2    3 1
     6    2   30 1
     7    2   31 1
     8    3    4 1
     9    3   32 1
    10    3   33 1
    11    4   11 am
    12    4    5 1
    13    5    6 1
    14    5    7 1
    15    5   26 1
    16    7    8 2
    17    7   14 1
    18    8    9 1
    19    8   10 1
    20   10   11 am
    21   10   13 1
    22   11   12 2
    23   13   34 1
    24   13   35 1
    25   13   36 1
    26   14   15 2
    27   14   16 1
    28   16   17 1
    29   16   37 1
    30   16   38 1
    31   17   18 1
    32   18   24 1
    33   18   19 2
    34   19   20 1
    35   20   21 2
    36   20   22 1
    37   22   23 1
    38   22   39 1
    39   22   40 1
    40   23   24 2
    41   23   25 1
    42   25   41 1
    43   25   42 1
    44   26   43 1
    45   26   44 1
@<TRIPOS>MOLECULE
ZINC11616470
   46    49     0     0     0
SMALL
USER_CHARGES
(6S,7S)-7-[[(2Z)-2-(2-aminothiazol-4-yl)-2-methoxyimino-acetyl]amino]-8-oxo-3-(thiadiazol-5-ylsulfanylmethyl)-5-thia-1-azabicyclo[4.2.0]oct-2-ene-2-carboxylic acid
@<TRIPOS>ATOM
      1 C1          0.6114    1.1993   -1.4064 C.3       1 <0>         0.0329
      2 O1          1.4038    0.0413   -1.1361 O.3       1 <0>        -0.1830
      3 N1          0.6612   -1.1628   -1.0727 N.2       1 <0>        -0.2748
      4 C2          1.2679   -2.2904   -0.8323 C.2       1 <0>         0.1764
      5 C3          0.5144   -3.5616   -0.8865 C.2       1 <0>         0.1320
      6 C4         -0.8422   -3.5559   -1.0724 C.2       1 <0>        -0.1818
      7 S1         -1.1889   -5.3097   -1.0530 S.3       1 <0>         0.0163
      8 C5          0.4894   -5.8697   -0.8018 C.2       1 <0>         0.4097
      9 N2          1.1471   -4.7267   -0.7554 N.2       1 <0>        -0.5750
     10 N3          0.9724   -7.1624   -0.6860 N.pl3     1 <0>        -0.7860
     11 C6          2.7131   -2.2990   -0.5046 C.2       1 <0>         0.5353
     12 O2          3.3105   -1.2503   -0.3640 O.2       1 <0>        -0.5046
     13 N4          3.3649   -3.4701   -0.3626 N.am      1 <0>        -0.6800
     14 C7          4.8136   -3.4805   -0.1452 C.3       1 <0>         0.1250
     15 H1          5.3077   -2.5925   -0.5395 H         1 <0>         0.1485
     16 C8          5.4846   -4.7871   -0.5549 C.3       1 <0>         0.1329
     17 H2          6.4224   -4.6837   -1.1008 H         1 <0>         0.1527
     18 N5          5.5847   -5.0600    0.9143 N.am      1 <0>        -0.5654
     19 C9          5.2136   -3.8180    1.2811 C.2       1 <0>         0.5345
     20 O3          5.2035   -3.2100    2.3306 O.2       1 <0>        -0.4434
     21 C10         5.8205   -6.3063    1.5178 C.2       1 <0>         0.1930
     22 C11         5.5923   -7.4259    0.8481 C.2       1 <0>        -0.2201
     23 C12         5.1358   -7.5862   -0.5653 C.3       1 <0>        -0.0239
     24 S2          4.3636   -6.0695   -1.2091 S.3       1 <0>        -0.2179
     25 C13         5.8228   -8.7047    1.6114 C.3       1 <0>        -0.0686
     26 S3          4.2303   -9.3734    2.1658 S.3       1 <0>         0.0547
     27 C14         4.6640  -10.8464    3.0298 C.2       1 <0>        -0.1734
     28 C15         3.8571  -11.7556    3.6605 C.2       1 <0>        -0.0275
     29 N6          4.4417  -12.7793    4.2353 N.2       1 <0>        -0.2300
     30 N7          5.7261  -12.9128    4.2008 N.2       1 <0>        -0.2026
     31 S4          6.2293  -11.5433    3.3063 S.3       1 <0>         0.2226
     32 C16         6.3249   -6.3683    2.9015 C.2       1 <0>         0.4933
     33 O4          5.5441   -6.4310    3.8304 O.co2     1 <0>        -0.5912
     34 H3          1.2535    2.0795   -1.4390 H         1 <0>         0.1026
     35 H4          0.1095    1.0800   -2.3666 H         1 <0>         0.0519
     36 H5         -0.1333    1.3217   -0.6200 H         1 <0>         0.0527
     37 H6         -1.5169   -2.7218   -1.1969 H         1 <0>         0.2054
     38 H7          0.3626   -7.9147   -0.7408 H         1 <0>         0.4233
     39 H8          1.9205   -7.3155   -0.5500 H         1 <0>         0.4207
     40 H9          2.8747   -4.3061   -0.4044 H         1 <0>         0.4323
     41 H10         4.4125   -8.4002   -0.6138 H         1 <0>         0.1172
     42 H11         5.9937   -7.8390   -1.1883 H         1 <0>         0.0994
     43 H12         6.3161   -9.4301    0.9645 H         1 <0>         0.0997
     44 H13         6.4531   -8.5024    2.4774 H         1 <0>         0.1180
     45 H14         2.7842  -11.6345    3.6838 H         1 <0>         0.1915
     46 O5          7.6519   -6.3553    3.1363 O.co2     1 <0>        -0.7253
@<TRIPOS>BOND
     1    1    2 1
     2    1   34 1
     3    1   35 1
     4    1   36 1
     5    2    3 1
     6    3    4 2
     7    4    5 1
     8    4   11 1
     9    5    9 1
    10    5    6 2
    11    6    7 1
    12    6   37 1
    13    7    8 1
    14    8    9 2
    15    8   10 1
    16   10   38 1
    17   10   39 1
    18   11   12 2
    19   11   13 am
    20   13   14 1
    21   13   40 1
    22   14   15 1
    23   14   19 1
    24   14   16 1
    25   16   17 1
    26   16   24 1
    27   16   18 1
    28   18   19 am
    29   18   21 1
    30   19   20 2
    31   21   22 2
    32   21   32 1
    33   22   23 1
    34   22   25 1
    35   23   24 1
    36   23   41 1
    37   23   42 1
    38   25   26 1
    39   25   43 1
    40   25   44 1
    41   26   27 1
    42   27   31 1
    43   27   28 2
    44   28   29 1
    45   28   45 1
    46   29   30 2
    47   30   31 1
    48   32   33 2
    49   32   46 1
@<TRIPOS>MOLECULE
ZINC20836302
   57    60     0     0     0
SMALL
USER_CHARGES
2-[[5-[(N'E)-N'-[(4-hydroxy-3-methoxy-5-nitro-phenyl)methylene]hydrazino]-4H-1,2,4-triazol-3-yl]sulfanyl]-N-[(1S)-tetralin-1-yl]acetamide
@<TRIPOS>ATOM
      1 C1          0.5720   18.8889   -7.2503 C.3       1 <0>         0.0241
      2 O1         -0.0710   18.0623   -8.2226 O.3       1 <0>        -0.2964
      3 C2         -0.4096   16.8038   -7.8357 C.ar      1 <0>         0.0216
      4 C3         -0.1353   16.3792   -6.5545 C.ar      1 <0>        -0.1219
      5 C4         -0.4842   15.0736   -6.1637 C.ar      1 <0>        -0.1613
      6 C5         -1.1206   14.2162   -7.0816 C.ar      1 <0>         0.0225
      7 C6         -1.3915   14.6491   -8.3460 C.ar      1 <0>        -0.1389
      8 C7         -1.0425   15.9397   -8.7376 C.ar      1 <0>         0.3230
      9 O2         -1.3162   16.3605   -9.9969 O.3       1 <0>        -0.5789
     10 N1         -2.0602   13.7435   -9.3070 N.pl3     1 <0>         0.0319
     11 O3         -2.3920   12.5229   -8.9401 O.2       1 <0>        -0.2924
     12 O4         -2.3234   14.1582  -10.5289 O.3       1 <0>        -0.1888
     13 C8         -0.2016   14.6252   -4.8501 C.2       1 <0>         0.1375
     14 N2         -0.5344   13.4034   -4.4850 N.2       1 <0>        -0.3060
     15 N3         -0.2771   12.9951   -3.2887 N.pl3     1 <0>        -0.4909
     16 C9         -0.6151   11.7542   -2.9180 C.2       1 <0>         0.4742
     17 N4         -0.4095   11.1891   -1.6833 N.2       1 <0>        -0.5206
     18 C10        -0.9061    9.9186   -1.7610 C.2       1 <0>         0.1340
     19 N5         -1.3952    9.7534   -3.0043 N.2       1 <0>        -0.3313
     20 N6         -1.2239   10.8320   -3.6832 N.pl3     1 <0>        -0.4102
     21 S1         -0.9118    8.7538   -0.5063 S.3       1 <0>         0.1299
     22 C11        -1.7202    7.3771   -1.3591 C.3       1 <0>        -0.1653
     23 C12        -1.8375    6.2041   -0.4204 C.2       1 <0>         0.5366
     24 O5         -1.4160    6.2903    0.7135 O.2       1 <0>        -0.5238
     25 N7         -2.4109    5.0591   -0.8410 N.am      1 <0>        -0.7305
     26 C13        -2.5249    3.9188    0.0716 C.3       1 <0>         0.1901
     27 H1         -2.6810    4.3013    1.0911 H         1 <0>         0.1014
     28 C14        -3.7056    3.0506   -0.3717 C.3       1 <0>        -0.1247
     29 C15        -3.6830    1.7587    0.4536 C.3       1 <0>        -0.1163
     30 C16        -2.4868    0.9214    0.0055 C.3       1 <0>        -0.0826
     31 C17        -1.2277    1.7480    0.0174 C.ar      1 <0>        -0.0709
     32 C18        -1.2453    3.1249    0.0367 C.ar      1 <0>        -0.0967
     33 C19        -0.0479    3.8280    0.0253 C.ar      1 <0>        -0.1038
     34 C20         1.1584    3.1584    0.0076 C.ar      1 <0>        -0.1267
     35 C21         1.1761    1.7763    0.0004 C.ar      1 <0>        -0.1154
     36 C22        -0.0126    1.0758    0.0080 C.ar      1 <0>        -0.1285
     37 H2          0.7891   19.8728   -7.6915 H         1 <0>         0.0940
     38 H3          1.5117   18.4152   -6.9301 H         1 <0>         0.0493
     39 H4         -0.0899   19.0149   -6.3808 H         1 <0>         0.0492
     40 H5          0.3487   17.0441   -5.8544 H         1 <0>         0.1267
     41 H6         -1.3940   13.2146   -6.7840 H         1 <0>         0.1365
     42 H7          0.2956   15.2968   -4.1347 H         1 <0>         0.1163
     43 H8          0.2200   13.6667   -2.5733 H         1 <0>         0.4207
     44 H9         -2.7238    7.6869   -1.6860 H         1 <0>         0.1238
     45 H10        -1.1223    7.0869   -2.2357 H         1 <0>         0.1231
     46 H11        -2.7932    4.9808   -1.8694 H         1 <0>         0.4266
     47 H12        -4.6460    3.5945   -0.1987 H         1 <0>         0.0770
     48 H13        -3.6082    2.8181   -1.4424 H         1 <0>         0.0748
     49 H14        -3.5897    2.0072    1.5211 H         1 <0>         0.0699
     50 H15        -4.6163    1.2009    0.2872 H         1 <0>         0.0746
     51 H16        -2.3599    0.0685    0.6884 H         1 <0>         0.0761
     52 H17        -2.6605    0.5509   -1.0156 H         1 <0>         0.0779
     53 H18        -0.0609    4.9080    0.0307 H         1 <0>         0.1308
     54 H19         2.0855    3.7122   -0.0003 H         1 <0>         0.1208
     55 H20         2.1172    1.2465   -0.0115 H         1 <0>         0.1200
     56 H21         0.0021   -0.0041    0.0020 H         1 <0>         0.1193
     57 H22        -1.4919   11.0702   -4.7231 H         1 <0>         0.4885
@<TRIPOS>BOND
     1    1    2 1
     2    1   37 1
     3    1   38 1
     4    1   39 1
     5    2    3 1
     6    3    8 ar
     7    3    4 ar
     8    4    5 ar
     9    4   40 1
    10    5    6 ar
    11    5   13 1
    12    6    7 ar
    13    6   41 1
    14    7    8 ar
    15    7   10 1
    16    8    9 1
    17   10   11 2
    18   10   12 1
    19   13   14 2
    20   13   42 1
    21   14   15 1
    22   15   16 1
    23   15   43 1
    24   16   20 1
    25   16   17 2
    26   17   18 1
    27   18   19 2
    28   18   21 1
    29   19   20 1
    30   20   57 1
    31   21   22 1
    32   22   23 1
    33   22   44 1
    34   22   45 1
    35   23   24 2
    36   23   25 am
    37   25   26 1
    38   25   46 1
    39   26   27 1
    40   26   32 1
    41   26   28 1
    42   28   29 1
    43   28   47 1
    44   28   48 1
    45   29   30 1
    46   29   49 1
    47   29   50 1
    48   30   31 1
    49   30   51 1
    50   30   52 1
    51   31   36 ar
    52   31   32 ar
    53   32   33 ar
    54   33   34 ar
    55   33   53 1
    56   34   35 ar
    57   34   54 1
    58   35   36 ar
    59   35   55 1
    60   36   56 1
@<TRIPOS>MOLECULE
ZINC05317298
   43    45     0     0     0
SMALL
USER_CHARGES
[[(2R)-2-hydroxy-1-(3-hydroxy-6-nitro-quinoxalin-2-yl)-2-(4-nitrophenyl)ethylidene]amino]thiourea
@<TRIPOS>ATOM
      1 C1         -3.5311   -1.2611   -1.8323 C.ar      1 <0>        -0.0739
      2 C2         -3.4852   -1.7727   -3.1157 C.ar      1 <0>        -0.0601
      3 C3         -4.6586   -2.0281   -3.8004 C.ar      1 <0>        -0.0412
      4 C4         -5.8780   -1.7770   -3.1997 C.ar      1 <0>        -0.0537
      5 C5         -5.9240   -1.2704   -1.9143 C.ar      1 <0>        -0.1108
      6 C6         -4.7506   -1.0150   -1.2297 C.ar      1 <0>        -0.0299
      7 C7         -4.8008   -0.4623    0.1714 C.3       1 <0>         0.1721
      8 H1         -5.7624   -0.6973    0.6512 H         1 <0>         0.0734
      9 C8         -4.5696    1.0264    0.1328 C.2       1 <0>         0.1455
     10 N1         -5.5817    1.8409    0.1198 N.2       1 <0>        -0.1839
     11 N2         -6.8869    1.3353    0.0599 N.pl3     1 <0>        -0.5633
     12 C9         -7.9328    2.1797   -0.0381 C.2       1 <0>         0.6200
     13 S1         -9.5278    1.5619   -0.1113 S.2       1 <0>        -0.6727
     14 N3         -7.7231    3.5104   -0.0784 N.pl3     1 <0>        -0.8044
     15 C10        -3.1975    1.5575    0.1097 C.ar      1 <0>         0.0868
     16 C11        -2.9801    2.9544    0.2108 C.ar      1 <0>         0.4106
     17 N4         -1.7580    3.4406    0.1913 N.ar      1 <0>        -0.5416
     18 C12        -0.7113    2.6108    0.0752 C.ar      1 <0>         0.1671
     19 C13         0.6018    3.1077    0.0526 C.ar      1 <0>        -0.0389
     20 C14         1.6494    2.2455   -0.0656 C.ar      1 <0>        -0.0054
     21 C15         1.4390    0.8719   -0.1649 C.ar      1 <0>        -0.1415
     22 C16         0.1802    0.3539   -0.1471 C.ar      1 <0>        -0.0234
     23 C17        -0.9264    1.2139   -0.0318 C.ar      1 <0>        -0.0044
     24 N5         -2.1724    0.7286   -0.0056 N.ar      1 <0>        -0.3704
     25 N6          3.0313    2.7755   -0.0892 N.pl3     1 <0>         0.0299
     26 O1          3.9745    2.0122   -0.1950 O.2       1 <0>        -0.1637
     27 O2          3.2251    3.9748   -0.0030 O.3       1 <0>        -0.1681
     28 O3         -4.0371    3.7938    0.3277 O.3       1 <0>        -0.6305
     29 O4         -3.7859   -1.0815    0.9643 O.3       1 <0>        -0.5527
     30 N7         -4.6093   -2.5701   -5.1769 N.pl3     1 <0>         0.0295
     31 O5         -5.6432   -2.7949   -5.7803 O.2       1 <0>        -0.1617
     32 O6         -3.5349   -2.7914   -5.7062 O.3       1 <0>        -0.1602
     33 H2         -2.6144   -1.0574   -1.2991 H         1 <0>         0.1723
     34 H3         -2.5325   -1.9685   -3.5852 H         1 <0>         0.1551
     35 H4         -6.7948   -1.9763   -3.7347 H         1 <0>         0.1569
     36 H5         -6.8767   -1.0739   -1.4451 H         1 <0>         0.1436
     37 H6         -7.0580    0.2492    0.0929 H         1 <0>         0.4232
     38 H7         -8.5767    4.1995   -0.1584 H         1 <0>         0.4525
     39 H8         -6.6983    3.9074   -0.0313 H         1 <0>         0.4509
     40 H9          0.7804    4.1701    0.1291 H         1 <0>         0.1569
     41 H10         2.2864    0.2088   -0.2577 H         1 <0>         0.1476
     42 H11         0.0318   -0.7129   -0.2257 H         1 <0>         0.1459
     43 H12        -3.6681   -0.8033    2.0220 H         1 <0>         0.4165
@<TRIPOS>BOND
     1    1    6 ar
     2    1    2 ar
     3    1   33 1
     4    2    3 ar
     5    2   34 1
     6    3    4 ar
     7    3   30 1
     8    4    5 ar
     9    4   35 1
    10    5    6 ar
    11    5   36 1
    12    6    7 1
    13    7    8 1
    14    7    9 1
    15    7   29 1
    16    9   10 2
    17    9   15 1
    18   10   11 1
    19   11   12 1
    20   11   37 1
    21   12   13 2
    22   12   14 1
    23   14   38 1
    24   14   39 1
    25   15   24 ar
    26   15   16 ar
    27   16   17 ar
    28   16   28 1
    29   17   18 ar
    30   18   23 ar
    31   18   19 ar
    32   19   20 ar
    33   19   40 1
    34   20   21 ar
    35   20   25 1
    36   21   22 ar
    37   21   41 1
    38   22   23 ar
    39   22   42 1
    40   23   24 ar
    41   25   26 2
    42   25   27 1
    43   29   43 1
    44   30   31 2
    45   30   32 1
@<TRIPOS>MOLECULE
ZINC38569844
   60    63     0     0     0
SMALL
USER_CHARGES

@<TRIPOS>ATOM
      1 C1          0.8943    1.6064   -0.4301 C.3       1 <0>        -0.1826
      2 C2          0.8746    0.0772   -0.4753 C.3       1 <0>         0.1139
      3 H1          1.6623   -0.2769   -1.1404 H         1 <0>         0.0875
      4 C3          1.1072   -0.4777    0.9314 C.3       1 <0>         0.0397
      5 H2          2.0323   -0.0668    1.3357 H         1 <0>         0.0873
      6 C4         -0.0457   -0.0902    1.8212 C.2       1 <0>         0.4906
      7 O1         -0.8303   -0.9399    2.2072 O.co2     1 <0>        -0.6743
      8 O2         -0.1938    1.0729    2.1552 O.co2     1 <0>        -0.6900
      9 N1          1.2073   -1.9380    0.8700 N.am      1 <0>        -0.6868
     10 C5          1.8859   -2.6076    1.8227 C.2       1 <0>         0.5072
     11 O3          2.4834   -1.9974    2.6839 O.2       1 <0>        -0.5199
     12 C6          1.9022   -4.1145    1.8180 C.3       1 <0>         0.1396
     13 H3          2.0530   -4.4730    0.7997 H         1 <0>         0.1186
     14 C7          0.5682   -4.6406    2.3515 C.3       1 <0>        -0.0972
     15 C8         -0.5541   -4.2591    1.3842 C.3       1 <0>        -0.1630
     16 C9          0.6352   -6.1638    2.4796 C.3       1 <0>        -0.1395
     17 N2          2.9925   -4.5938    2.6710 N.am      1 <0>        -0.5551
     18 C10         4.0186   -5.3570    2.2348 C.2       1 <0>         0.5365
     19 O4          4.1730   -5.8122    1.1218 O.2       1 <0>        -0.4733
     20 C11         4.9328   -5.5230    3.4250 C.3       1 <0>         0.1848
     21 C12         5.1463   -6.9788    3.7635 C.2       1 <0>         0.0671
     22 H4          5.8511   -7.8266    1.9954 H         1 <0>         0.4213
     23 C13         4.8907   -7.4943    4.9874 C.2       1 <0>        -0.1368
     24 C14         5.2353   -8.9038    4.9222 C.ar      1 <0>        -0.1053
     25 C15         5.1917   -9.9295    5.8709 C.ar      1 <0>        -0.0620
     26 C16         5.5983  -11.1744    5.4566 C.ar      1 <0>        -0.1523
     27 C17         6.0322  -11.4141    4.1635 C.ar      1 <0>        -0.0974
     28 C18         6.0858  -10.4165    3.2049 C.ar      1 <0>        -0.1308
     29 C19         5.6801   -9.1428    3.5974 C.ar      1 <0>         0.1083
     30 N3          5.6096   -7.9567    2.9258 N.pl3     1 <0>        -0.5705
     31 C20         4.3358   -6.7477    6.1735 C.3       1 <0>        -0.0678
     32 C21         4.4375   -5.2323    5.9447 C.3       1 <0>         0.1525
     33 N4          4.1235   -4.9726    4.5381 N.am      1 <0>        -0.6183
     34 C22         3.0991   -4.3243    3.9823 C.2       1 <0>         0.7113
     35 O5          2.3512   -3.5827    4.5888 O.2       1 <0>        -0.4857
     36 C23         6.2516   -4.7691    3.2430 C.3       1 <0>        -0.1396
     37 O6         -0.3938   -0.3687   -0.9595 O.3       1 <0>        -0.5696
     38 H5          1.8618    1.9465   -0.0608 H         1 <0>         0.0581
     39 H6          0.7286    2.0017   -1.4323 H         1 <0>         0.0507
     40 H7          0.1066    1.9604    0.2350 H         1 <0>         0.0915
     41 H8          0.7853   -2.4230    0.1437 H         1 <0>         0.3959
     42 H9          0.3697   -4.2021    3.3295 H         1 <0>         0.0957
     43 H10        -0.3056   -4.6103    0.3827 H         1 <0>         0.0493
     44 H11        -1.4867   -4.7199    1.7098 H         1 <0>         0.0623
     45 H12        -0.6696   -3.1753    1.3710 H         1 <0>         0.1008
     46 H13         1.4348   -6.4356    3.1688 H         1 <0>         0.0437
     47 H14        -0.3151   -6.5386    2.8597 H         1 <0>         0.0634
     48 H15         0.8338   -6.6023    1.5017 H         1 <0>         0.0546
     49 H16         4.8548   -9.7516    6.8815 H         1 <0>         0.1298
     50 H17         5.5793  -11.9922    6.1618 H         1 <0>         0.1177
     51 H18         6.3398  -12.4136    3.8936 H         1 <0>         0.1204
     52 H19         6.4266  -10.6164    2.1997 H         1 <0>         0.1284
     53 H20         3.2904   -7.0218    6.3154 H         1 <0>         0.0805
     54 H21         4.9010   -7.0167    7.0658 H         1 <0>         0.0901
     55 H22         3.7237   -4.7133    6.5844 H         1 <0>         0.1058
     56 H23         5.4490   -4.8922    6.1666 H         1 <0>         0.0833
     57 H24         6.0471   -3.7077    3.1032 H         1 <0>         0.0809
     58 H25         6.8734   -4.9059    4.1278 H         1 <0>         0.0852
     59 H26         6.7740   -5.1567    2.3684 H         1 <0>         0.0806
     60 H27        -1.1428   -0.0897   -0.4153 H         1 <0>         0.3832
@<TRIPOS>BOND
     1    1    2 1
     2    1   38 1
     3    1   39 1
     4    1   40 1
     5    2    3 1
     6    2    4 1
     7    2   37 1
     8    4    5 1
     9    4    6 1
    10    4    9 1
    11    6    7 2
    12    6    8 1
    13    9   10 am
    14    9   41 1
    15   10   11 2
    16   10   12 1
    17   12   13 1
    18   12   14 1
    19   12   17 1
    20   14   15 1
    21   14   16 1
    22   14   42 1
    23   15   43 1
    24   15   44 1
    25   15   45 1
    26   16   46 1
    27   16   47 1
    28   16   48 1
    29   17   34 am
    30   17   18 am
    31   18   19 2
    32   18   20 1
    33   20   33 1
    34   20   36 1
    35   20   21 1
    36   21   23 2
    37   21   30 1
    38   22   30 1
    39   23   24 1
    40   23   31 1
    41   24   25 ar
    42   24   29 ar
    43   25   26 ar
    44   25   49 1
    45   26   27 ar
    46   26   50 1
    47   27   28 ar
    48   27   51 1
    49   28   29 ar
    50   28   52 1
    51   29   30 1
    52   31   32 1
    53   31   53 1
    54   31   54 1
    55   32   33 1
    56   32   55 1
    57   32   56 1
    58   33   34 am
    59   34   35 2
    60   36   57 1
    61   36   58 1
    62   36   59 1
    63   37   60 1
@<TRIPOS>MOLECULE
ZINC02872410
   46    49     0     0     0
SMALL
USER_CHARGES

@<TRIPOS>ATOM
      1 C1          0.1364    0.6991   -1.1410 C.ar      1 <0>        -0.1119
      2 C2          0.6297    0.5323    0.1400 C.ar      1 <0>        -0.1133
      3 C3          1.8406   -0.1020    0.3381 C.ar      1 <0>        -0.0914
      4 C4          2.5624   -0.5727   -0.7507 C.ar      1 <0>         0.1455
      5 C5          2.0641   -0.4040   -2.0358 C.ar      1 <0>        -0.0915
      6 C6          0.8529    0.2315   -2.2273 C.ar      1 <0>        -0.1133
      7 N1          3.7910   -1.2160   -0.5532 N.am      1 <0>        -0.4738
      8 C7          3.8236   -2.5724   -0.2869 C.2       1 <0>         0.5125
      9 C8          5.0738   -3.1777   -0.0955 C.2       1 <0>        -0.4586
     10 C9          6.2129   -2.4412   -0.1719 C.2       1 <0>         0.5468
     11 O1          7.4146   -3.0264    0.0123 O.3       1 <0>        -0.6184
     12 N2          6.1316   -1.0979   -0.4382 N.am      1 <0>        -0.6421
     13 H1          6.9418   -0.5675   -0.4938 H         1 <0>         0.4279
     14 C10         4.9352   -0.5132   -0.6286 C.2       1 <0>         0.7206
     15 O2          4.8869    0.6777   -0.8687 O.2       1 <0>        -0.5492
     16 C11         4.7796   -4.6355    0.1718 C.3       1 <0>         0.1610
     17 C12         3.2658   -4.6924    0.0943 C.2       1 <0>         0.5133
     18 O3          2.5699   -5.6784    0.2460 O.2       1 <0>        -0.4688
     19 N3          2.8463   -3.4665   -0.1696 N.2       1 <0>        -0.6512
     20 C13         5.4111   -5.5220   -0.9035 C.3       1 <0>         0.4737
     21 F1          6.8047   -5.4237   -0.8296 F         1 <0>        -0.1571
     22 F2          5.0258   -6.8510   -0.6977 F         1 <0>        -0.1789
     23 F3          4.9803   -5.1018   -2.1664 F         1 <0>        -0.1760
     24 N4          5.2459   -5.0230    1.5055 N.pl3     1 <0>        -1.0813
     25 S1          4.6731   -4.2344    2.8444 S.o2      1 <0>         2.7001
     26 O4          5.3003   -4.8353    3.9690 O.2       1 <0>        -0.9698
     27 O5          4.7718   -2.8437    2.5698 O.2       1 <0>        -0.9454
     28 C14         2.9545   -4.6022    2.9701 C.ar      1 <0>        -0.7341
     29 C15         2.0202   -3.7097    2.4774 C.ar      1 <0>         0.0590
     30 C16         0.6724   -3.9949    2.5743 C.ar      1 <0>        -0.2025
     31 C17         0.2556   -5.1798    3.1676 C.ar      1 <0>         0.2681
     32 C18         1.1969   -6.0741    3.6615 C.ar      1 <0>        -0.2194
     33 C19         2.5433   -5.7853    3.5563 C.ar      1 <0>         0.0377
     34 N5         -1.1067   -5.4711    3.2677 N.pl3     1 <0>        -0.8720
     35 H2         -0.8126    1.1918   -1.2930 H         1 <0>         0.1235
     36 H3          0.0678    0.8986    0.9864 H         1 <0>         0.1270
     37 H4          2.2257   -0.2314    1.3387 H         1 <0>         0.1277
     38 H5          2.6234   -0.7687   -2.8847 H         1 <0>         0.1244
     39 H6          0.4647    0.3629   -3.2266 H         1 <0>         0.1266
     40 H7          5.8901   -5.7414    1.6044 H         1 <0>         0.4171
     41 H8          2.3448   -2.7885    2.0165 H         1 <0>         0.1359
     42 H9         -0.0568   -3.2972    2.1896 H         1 <0>         0.1236
     43 H10         0.8762   -6.9960    4.1237 H         1 <0>         0.1222
     44 H11         3.2757   -6.4821    3.9361 H         1 <0>         0.1289
     45 H12        -1.7630   -4.8457    2.9227 H         1 <0>         0.3991
     46 H13        -1.3965   -6.2988    3.6822 H         1 <0>         0.3977
@<TRIPOS>BOND
     1    1    6 ar
     2    1    2 ar
     3    1   35 1
     4    2    3 ar
     5    2   36 1
     6    3    4 ar
     7    3   37 1
     8    4    5 ar
     9    4    7 1
    10    5    6 ar
    11    5   38 1
    12    6   39 1
    13    7   14 am
    14    7    8 1
    15    8   19 2
    16    8    9 1
    17    9   10 2
    18    9   16 1
    19   10   11 1
    20   10   12 1
    21   12   13 1
    22   12   14 am
    23   14   15 2
    24   16   17 1
    25   16   20 1
    26   16   24 1
    27   17   18 2
    28   17   19 1
    29   20   21 1
    30   20   22 1
    31   20   23 1
    32   24   25 1
    33   24   40 1
    34   25   26 2
    35   25   27 2
    36   25   28 1
    37   28   33 ar
    38   28   29 ar
    39   29   30 ar
    40   29   41 1
    41   30   31 ar
    42   30   42 1
    43   31   32 ar
    44   31   34 1
    45   32   33 ar
    46   32   43 1
    47   33   44 1
    48   34   45 1
    49   34   46 1
@<TRIPOS>MOLECULE
ZINC04215234
   50    53     0     0     0
SMALL
USER_CHARGES
7-[2-(2-aminothiazol-4-yl)-2-methoxyimino-acetyl]amino-3-[2-(4-methylthiazol-5-yl)vinyl]-8-oxo-5-thia-1-azabicyclo[4.2.0]oct-2-ene-2-carboxylic acid
@<TRIPOS>ATOM
      1 C1         -5.5154   -2.9781   -2.4555 C.3       1 <0>        -0.0685
      2 C2         -5.3814   -1.9675   -1.3456 C.2       1 <0>         0.0150
      3 C3         -5.2259   -0.6121   -1.6191 C.2       1 <0>        -0.1003
      4 S1         -5.1187    0.0435    0.0401 S.3       1 <0>         0.0988
      5 C4         -5.2920   -1.4607    0.8900 C.2       1 <0>        -0.0247
      6 N1         -5.4075   -2.3325   -0.0885 N.2       1 <0>        -0.4943
      7 C5         -5.1636    0.0598   -2.8650 C.2       1 <0>        -0.0757
      8 C6         -5.0949    1.4166   -2.9026 C.2       1 <0>        -0.0053
      9 C7         -5.1910    2.1586   -1.7123 C.2       1 <0>        -0.1790
     10 C8         -6.4159    2.2055   -1.1393 C.2       1 <0>         0.1572
     11 N2         -6.5936    2.8572    0.0983 N.am      1 <0>        -0.5621
     12 C9         -5.6841    3.8818    0.6916 C.3       1 <0>         0.1394
     13 H1         -5.8074    4.9064    0.3405 H         1 <0>         0.1503
     14 C10        -6.4187    3.5252    1.9734 C.3       1 <0>         0.1109
     15 H2         -6.8651    4.3864    2.4705 H         1 <0>         0.1404
     16 C11        -7.4100    2.7275    1.1559 C.2       1 <0>         0.5424
     17 O1         -8.4813    2.1984    1.3656 O.2       1 <0>        -0.4236
     18 N3         -5.6235    2.6992    2.8853 N.am      1 <0>        -0.6799
     19 C12        -5.8960    2.6988    4.2052 C.2       1 <0>         0.5348
     20 O2         -6.7408    3.4496    4.6514 O.2       1 <0>        -0.5081
     21 C13        -5.1653    1.7827    5.1123 C.2       1 <0>         0.1756
     22 N4         -5.4873    1.7206    6.3732 N.2       1 <0>        -0.2757
     23 O3         -6.4583    2.6063    6.9004 O.3       1 <0>        -0.1817
     24 C14        -6.7127    2.4266    8.2950 C.3       1 <0>         0.0325
     25 C15        -4.0706    0.9391    4.5864 C.2       1 <0>         0.1310
     26 C16        -3.4907   -0.0166    5.3773 C.2       1 <0>        -0.1828
     27 S2         -2.2803   -0.6937    4.2492 S.3       1 <0>         0.0140
     28 C17        -2.6567    0.3584    2.8546 C.2       1 <0>         0.4106
     29 N5         -3.6325    1.1030    3.3389 N.2       1 <0>        -0.5737
     30 N6         -2.0774    0.3850    1.5971 N.pl3     1 <0>        -0.7845
     31 S3         -3.9986    3.2015    0.5374 S.3       1 <0>        -0.2180
     32 C18        -3.9280    2.7986   -1.2352 C.3       1 <0>        -0.0242
     33 C19        -7.5229    1.5981   -1.7847 C.2       1 <0>         0.4734
     34 O4         -8.5964    1.5293   -1.2156 O.co2     1 <0>        -0.5947
     35 H3         -4.5272   -3.3416   -2.7371 H         1 <0>         0.0624
     36 H4         -6.1263   -3.8137   -2.1142 H         1 <0>         0.0647
     37 H5         -5.9896   -2.5098   -3.3180 H         1 <0>         0.0719
     38 H6         -5.2986   -1.6371    1.9555 H         1 <0>         0.1941
     39 H7         -5.1707   -0.5063   -3.7847 H         1 <0>         0.1303
     40 H8         -4.9666    1.9248   -3.8468 H         1 <0>         0.1197
     41 H9         -4.9008    2.1526    2.5391 H         1 <0>         0.4322
     42 H10        -5.7921    2.5877    8.8560 H         1 <0>         0.0516
     43 H11        -7.0727    1.4129    8.4710 H         1 <0>         0.0523
     44 H12        -7.4673    3.1420    8.6219 H         1 <0>         0.1021
     45 H13        -3.7061   -0.2876    6.4004 H         1 <0>         0.2050
     46 H14        -2.3895    1.0190    0.9326 H         1 <0>         0.4196
     47 H15        -1.3595   -0.2304    1.3807 H         1 <0>         0.4220
     48 H16        -3.7590    3.7149   -1.8008 H         1 <0>         0.1001
     49 H17        -3.0962    2.1164   -1.4111 H         1 <0>         0.1155
     50 O5         -7.3859    1.0961   -3.0304 O.co2     1 <0>        -0.7129
@<TRIPOS>BOND
     1    1    2 1
     2    1   35 1
     3    1   36 1
     4    1   37 1
     5    2    6 1
     6    2    3 2
     7    3    4 1
     8    3    7 1
     9    4    5 1
    10    5    6 2
    11    5   38 1
    12    7    8 2
    13    7   39 1
    14    8    9 1
    15    8   40 1
    16    9   32 1
    17    9   10 2
    18   10   11 1
    19   10   33 1
    20   11   16 am
    21   11   12 1
    22   12   13 1
    23   12   14 1
    24   12   31 1
    25   14   15 1
    26   14   16 1
    27   14   18 1
    28   16   17 2
    29   18   19 am
    30   18   41 1
    31   19   20 2
    32   19   21 1
    33   21   22 2
    34   21   25 1
    35   22   23 1
    36   23   24 1
    37   24   42 1
    38   24   43 1
    39   24   44 1
    40   25   29 1
    41   25   26 2
    42   26   27 1
    43   26   45 1
    44   27   28 1
    45   28   29 2
    46   28   30 1
    47   30   46 1
    48   30   47 1
    49   31   32 1
    50   32   48 1
    51   32   49 1
    52   33   34 2
    53   33   50 1
@<TRIPOS>MOLECULE
ZINC20426686
   54    56     0     0     0
SMALL
USER_CHARGES
(E)-3-[4-(2-amino-2-oxo-ethoxy)phenyl]-2-cyano-N-[4-[(4-methylpyrimidin-2-yl)sulfamoyl]phenyl]prop-2-enamide
@<TRIPOS>ATOM
      1 C1         -3.7990   -3.2702    2.1348 C.3       1 <0>        -0.0984
      2 C2         -3.0274   -2.8759    0.9019 C.ar      1 <0>         0.1946
      3 C3         -3.6723   -2.2710   -0.1657 C.ar      1 <0>        -0.3325
      4 C4         -2.9258   -1.9247   -1.2807 C.ar      1 <0>         0.1789
      5 N1         -1.6278   -2.1801   -1.2931 N.ar      1 <0>        -0.5950
      6 C5         -1.0418   -2.7596   -0.2559 C.ar      1 <0>         0.5804
      7 N2         -1.7277   -3.1080    0.8230 N.ar      1 <0>        -0.5479
      8 N3          0.3182   -3.0122   -0.3026 N.2       1 <0>        -1.0174
      9 S1          1.2581   -2.2768   -1.4508 S.o2      1 <0>         2.6224
     10 O1          0.5980   -2.4622   -2.6954 O.2       1 <0>        -1.0079
     11 O2          2.5916   -2.7117   -1.2235 O.2       1 <0>        -0.9961
     12 C6          1.2289   -0.5468   -1.1180 C.ar      1 <0>        -0.6645
     13 C7          2.1768    0.0105   -0.2794 C.ar      1 <0>        -0.0087
     14 C8          2.1573    1.3664   -0.0173 C.ar      1 <0>        -0.1456
     15 C9          1.1840    2.1702   -0.5965 C.ar      1 <0>         0.1762
     16 C10         0.2334    1.6073   -1.4383 C.ar      1 <0>        -0.1722
     17 C11         0.2585    0.2508   -1.6964 C.ar      1 <0>         0.0038
     18 N4          1.1611    3.5434   -0.3328 N.am      1 <0>        -0.6796
     19 C12         2.3172    4.2241   -0.2036 C.2       1 <0>         0.5736
     20 O3          3.3782    3.6656   -0.4096 O.2       1 <0>        -0.5094
     21 C13         2.2960    5.6422    0.1864 C.2       1 <0>        -0.1353
     22 C14         3.4779    6.3382    0.3185 C.2       1 <0>         0.0787
     23 C15         3.4544    7.7845    0.5463 C.ar      1 <0>        -0.1444
     24 C16         2.4449    8.5713   -0.0273 C.ar      1 <0>        -0.0439
     25 C17         2.4253    9.9192    0.1932 C.ar      1 <0>        -0.2130
     26 C18         3.4100   10.5133    0.9760 C.ar      1 <0>         0.1550
     27 C19         4.4172    9.7391    1.5429 C.ar      1 <0>        -0.1513
     28 C20         4.4445    8.3894    1.3341 C.ar      1 <0>        -0.0347
     29 O4          3.3882   11.8534    1.1870 O.3       1 <0>        -0.2843
     30 C21         2.3265   12.5892    0.5759 C.3       1 <0>         0.0334
     31 C22         2.4656   14.0501    0.9187 C.2       1 <0>         0.5212
     32 O5          3.3834   14.4243    1.6176 O.2       1 <0>        -0.5261
     33 N5          1.5699   14.9408    0.4487 N.am      1 <0>        -0.8738
     34 C23         1.0471    6.2996    0.4288 C.1       1 <0>         0.2481
     35 N6          0.0563    6.8210    0.6212 N.1       1 <0>        -0.4076
     36 H1         -4.8568   -2.9959    2.0087 H         1 <0>         0.0673
     37 H2         -3.3860   -2.7459    3.0091 H         1 <0>         0.0735
     38 H3         -3.7175   -4.3566    2.2865 H         1 <0>         0.0744
     39 H4         -4.7336   -2.0742   -0.1295 H         1 <0>         0.1209
     40 H5         -3.3978   -1.4517   -2.1292 H         1 <0>         0.1440
     41 H6          2.9334   -0.6151    0.1707 H         1 <0>         0.1380
     42 H7          2.8954    1.8003    0.6410 H         1 <0>         0.1319
     43 H8         -0.5243    2.2297   -1.8909 H         1 <0>         0.1242
     44 H9         -0.4804   -0.1876   -2.3508 H         1 <0>         0.1481
     45 H10         0.1996    4.0679   -0.2308 H         1 <0>         0.4301
     46 H11         4.4391    5.8073    0.2528 H         1 <0>         0.1720
     47 H12         1.6823    8.1117   -0.6386 H         1 <0>         0.1295
     48 H13         1.6459   10.5255   -0.2443 H         1 <0>         0.1333
     49 H14         5.1793   10.2061    2.1491 H         1 <0>         0.1419
     50 H15         5.2271    7.7894    1.7744 H         1 <0>         0.1450
     51 H16         2.3736   12.4626   -0.5158 H         1 <0>         0.0973
     52 H17         1.3606   12.2158    0.9469 H         1 <0>         0.0971
     53 H18         1.6714   16.0071    0.6989 H         1 <0>         0.4319
     54 H19         0.7374   14.6014   -0.1851 H         1 <0>         0.4230
@<TRIPOS>BOND
     1    1    2 1
     2    1   36 1
     3    1   37 1
     4    1   38 1
     5    2    7 ar
     6    2    3 ar
     7    3    4 ar
     8    3   39 1
     9    4    5 ar
    10    4   40 1
    11    5    6 ar
    12    6    7 ar
    13    6    8 1
    14    8    9 1
    15    9   10 2
    16    9   11 2
    17    9   12 1
    18   12   17 ar
    19   12   13 ar
    20   13   14 ar
    21   13   41 1
    22   14   15 ar
    23   14   42 1
    24   15   16 ar
    25   15   18 1
    26   16   17 ar
    27   16   43 1
    28   17   44 1
    29   18   19 am
    30   18   45 1
    31   19   20 2
    32   19   21 1
    33   21   22 2
    34   21   34 1
    35   22   23 1
    36   22   46 1
    37   23   28 ar
    38   23   24 ar
    39   24   25 ar
    40   24   47 1
    41   25   26 ar
    42   25   48 1
    43   26   27 ar
    44   26   29 1
    45   27   28 ar
    46   27   49 1
    47   28   50 1
    48   29   30 1
    49   30   31 1
    50   30   51 1
    51   30   52 1
    52   31   32 2
    53   31   33 am
    54   33   53 1
    55   33   54 1
    56   34   35 3
@<TRIPOS>MOLECULE
ZINC16958024
   43    45     0     0     0
SMALL
USER_CHARGES
methyl (2E,3S)-2-hydrazono-3-(6-nitro-3-oxo-4H-quinoxalin-2-yl)-4,5-dioxo-5-[(5-thioxo-1,2-dihydro-1,2,4-triazol-3-yl)amino]pentanoate
@<TRIPOS>ATOM
      1 C1          4.8340   -0.0584   -4.5279 C.3       1 <0>         0.0358
      2 O1          4.7009    1.0785   -3.6724 O.3       1 <0>        -0.3521
      3 C2          4.2955    0.8484   -2.4063 C.2       1 <0>         0.5397
      4 O2          4.0616   -0.2877   -2.0396 O.2       1 <0>        -0.4796
      5 C3          4.1373    1.9636   -1.4757 C.2       1 <0>        -0.0177
      6 N1          4.3880    3.1810   -1.8686 N.2       1 <0>        -0.1196
      7 N2          4.3604    4.1515   -1.0192 N.pl3     1 <0>        -0.6976
      8 C4          3.6845    1.7066   -0.0614 C.3       1 <0>        -0.0187
      9 H1          3.4916    2.6655    0.4418 H         1 <0>         0.1166
     10 C5          4.7598    0.9566    0.6818 C.ar      1 <0>         0.1080
     11 C6          4.6028    0.6827    2.1145 C.ar      1 <0>         0.4611
     12 O3          3.6078    1.0574    2.7080 O.3       1 <0>        -0.5530
     13 N3          5.5753    0.0093    2.7671 N.ar      1 <0>        -0.6276
     14 C7          6.6903   -0.4020    2.0648 C.ar      1 <0>         0.1590
     15 C8          7.7093   -1.0981    2.7083 C.ar      1 <0>        -0.0617
     16 C9          8.8171   -1.5039    1.9971 C.ar      1 <0>        -0.0259
     17 C10         8.9261   -1.2237    0.6411 C.ar      1 <0>        -0.1585
     18 C11         7.9398   -0.5429   -0.0102 C.ar      1 <0>        -0.0333
     19 C12         6.8005   -0.1181    0.6908 C.ar      1 <0>         0.0096
     20 N4          5.8224    0.5494    0.0489 N.ar      1 <0>        -0.4282
     21 N5          9.8997   -2.2441    2.6834 N.pl3     1 <0>         0.0442
     22 O4         10.8813   -2.6052    2.0591 O.2       1 <0>        -0.1912
     23 O5          9.8091   -2.4923    3.8724 O.3       1 <0>        -0.1877
     24 C13         2.4208    0.8857   -0.0800 C.2       1 <0>         0.3891
     25 O6          2.4806   -0.3171    0.0117 O.2       1 <0>        -0.4076
     26 C14         1.0976    1.5581   -0.2116 C.2       1 <0>         0.4256
     27 O7          1.0375    2.7664   -0.3037 O.3       1 <0>        -0.5979
     28 N6         -0.0327    0.8240   -0.2282 N.2       1 <0>        -0.6780
     29 C15        -1.2506    1.4426   -0.3550 C.2       1 <0>         0.4228
     30 N7         -1.4554    2.7891   -0.4616 N.2       1 <0>        -0.3991
     31 N8         -2.8432    2.9722   -0.5791 N.2       1 <0>        -0.3944
     32 C16        -3.3980    1.7434   -0.5298 C.2       1 <0>         0.3250
     33 S1         -5.0724    1.3992   -0.6242 S.3       1 <0>        -0.8837
     34 N9         -2.4213    0.8385   -0.3948 N.pl3     1 <0>        -0.5858
     35 H2          5.1687    0.2689   -5.5233 H         1 <0>         0.0893
     36 H3          3.8623   -0.5664   -4.6164 H         1 <0>         0.0550
     37 H4          5.5733   -0.7529   -4.1024 H         1 <0>         0.0535
     38 H5          4.5720    5.1788   -1.3508 H         1 <0>         0.4415
     39 H6          4.1254    3.9518    0.0367 H         1 <0>         0.3978
     40 H7          7.6320   -1.3193    3.7626 H         1 <0>         0.1435
     41 H8          9.8004   -1.5487    0.0967 H         1 <0>         0.1337
     42 H9          8.0357   -0.3305   -1.0647 H         1 <0>         0.1322
     43 H10        -2.6677   -0.2319   -0.3351 H         1 <0>         0.4156
@<TRIPOS>BOND
     1    1    2 1
     2    1   35 1
     3    1   36 1
     4    1   37 1
     5    2    3 1
     6    3    4 2
     7    3    5 1
     8    5    6 2
     9    5    8 1
    10    6    7 1
    11    7   38 1
    12    7   39 1
    13    8    9 1
    14    8   10 1
    15    8   24 1
    16   10   20 ar
    17   10   11 ar
    18   11   12 1
    19   11   13 ar
    20   13   14 ar
    21   14   19 ar
    22   14   15 ar
    23   15   16 ar
    24   15   40 1
    25   16   17 ar
    26   16   21 1
    27   17   18 ar
    28   17   41 1
    29   18   19 ar
    30   18   42 1
    31   19   20 ar
    32   21   22 2
    33   21   23 1
    34   24   25 2
    35   24   26 1
    36   26   27 1
    37   26   28 2
    38   28   29 1
    39   29   34 1
    40   29   30 2
    41   30   31 1
    42   31   32 2
    43   32   33 1
    44   32   34 1
    45   34   43 1
@<TRIPOS>MOLECULE
ZINC38794111
   47    50     0     0     0
SMALL
USER_CHARGES

@<TRIPOS>ATOM
      1 C1         -0.0167    1.3782    0.0096 C.ar      1 <0>        -0.0672
      2 C2          1.1703    2.0860    0.0021 C.ar      1 <0>        -0.1510
      3 C3          2.3786    1.4101   -0.0131 C.ar      1 <0>         0.1134
      4 C4          2.3962    0.0256   -0.0207 C.ar      1 <0>        -0.1520
      5 C5          1.2079   -0.6800   -0.0132 C.ar      1 <0>        -0.0692
      6 C6          0.0021   -0.0041    0.0020 C.ar      1 <0>        -0.1045
      7 C7         -1.2930   -0.7747    0.0103 C.3       1 <0>        -0.5676
      8 S1         -1.8290   -1.0747   -1.6966 S.o2      1 <0>         2.4059
      9 O1         -2.1340    0.1760   -2.2983 O.2       1 <0>        -0.9006
     10 O2         -0.8813   -1.9294   -2.3216 O.2       1 <0>        -0.8973
     11 C8         -3.3751   -1.9971   -1.4748 C.3       1 <0>        -0.2687
     12 H1         -3.8173   -2.2349   -2.4423 H         1 <0>         0.1594
     13 N1         -3.1316   -3.2353   -0.6993 N.3       1 <0>        -0.4555
     14 N2         -4.2980   -3.3972    0.1709 N.3       1 <0>        -0.4735
     15 C9         -5.1849   -2.2483   -0.1245 C.3       1 <0>         0.2025
     16 H2         -5.9388   -2.5290   -0.8600 H         1 <0>         0.1310
     17 O3         -4.3041   -1.2380   -0.6685 O.3       1 <0>        -0.3601
     18 C10        -5.8522   -1.7457    1.1573 C.3       1 <0>         0.1043
     19 N3         -4.8231   -1.3210    2.1095 N.pl3     1 <0>        -1.1265
     20 S2         -5.2379   -0.3969    3.4196 S.o2      1 <0>         2.7055
     21 O4         -4.0425   -0.1757    4.1554 O.2       1 <0>        -0.9624
     22 O5         -6.0379    0.6694    2.9275 O.2       1 <0>        -0.9576
     23 C11        -6.2832   -1.3809    4.4412 C.ar      1 <0>        -0.7267
     24 C12        -7.6555   -1.3613    4.2432 C.ar      1 <0>        -0.0202
     25 C13        -8.4847   -2.1259    5.0341 C.ar      1 <0>        -0.1404
     26 C14        -7.9389   -2.9243    6.0400 C.ar      1 <0>         0.1542
     27 C15        -6.5501   -2.9412    6.2370 C.ar      1 <0>        -0.0603
     28 C16        -5.7300   -2.1700    5.4290 C.ar      1 <0>         0.0297
     29 O6         -6.3214   -3.7916    7.2636 O.3       1 <0>        -0.2708
     30 C17        -7.5043   -4.2749    7.6795 C.2       1 <0>         0.5256
     31 O7         -7.6679   -5.1553    8.6923 O.3       1 <0>        -0.6259
     32 N4         -8.4732   -3.7699    6.9637 N.2       1 <0>        -0.6046
     33 F1          3.5396    2.1009   -0.0209 F         1 <0>        -0.1346
     34 H3         -0.9592    1.9052    0.0260 H         1 <0>         0.1445
     35 H4          1.1554    3.1659    0.0077 H         1 <0>         0.1447
     36 H5          3.3381   -0.5027   -0.0329 H         1 <0>         0.1442
     37 H6          1.2213   -1.7599   -0.0195 H         1 <0>         0.1439
     38 H7         -1.1453   -1.7280    0.5176 H         1 <0>         0.1431
     39 H8         -2.0553   -0.1984    0.5345 H         1 <0>         0.1545
     40 H9         -2.2836   -3.1618   -0.1575 H         1 <0>         0.3259
     41 H10        -4.0260   -3.4037    1.1425 H         1 <0>         0.3445
     42 H11        -6.5005   -0.9014    0.9224 H         1 <0>         0.1104
     43 H12        -6.4452   -2.5477    1.5968 H         1 <0>         0.1067
     44 H13        -3.8987   -1.5811    1.9726 H         1 <0>         0.4059
     45 H14        -8.0767   -0.7427    3.4646 H         1 <0>         0.1348
     46 H15        -9.5530   -2.1071    4.8764 H         1 <0>         0.1299
     47 H16        -4.6600   -2.1834    5.5747 H         1 <0>         0.1329
@<TRIPOS>BOND
     1    1    6 ar
     2    1    2 ar
     3    1   34 1
     4    2    3 ar
     5    2   35 1
     6    3    4 ar
     7    3   33 1
     8    4    5 ar
     9    4   36 1
    10    5    6 ar
    11    5   37 1
    12    6    7 1
    13    7    8 1
    14    7   38 1
    15    7   39 1
    16    8    9 2
    17    8   10 2
    18    8   11 1
    19   11   12 1
    20   11   17 1
    21   11   13 1
    22   13   14 1
    23   13   40 1
    24   14   15 1
    25   14   41 1
    26   15   16 1
    27   15   17 1
    28   15   18 1
    29   18   19 1
    30   18   42 1
    31   18   43 1
    32   19   20 1
    33   19   44 1
    34   20   21 2
    35   20   22 2
    36   20   23 1
    37   23   28 ar
    38   23   24 ar
    39   24   25 ar
    40   24   45 1
    41   25   26 ar
    42   25   46 1
    43   26   32 1
    44   26   27 ar
    45   27   28 ar
    46   27   29 1
    47   28   47 1
    48   29   30 1
    49   30   31 1
    50   30   32 2
@<TRIPOS>MOLECULE
ZINC49601555
   56    57     0     0     0
SMALL
USER_CHARGES

@<TRIPOS>ATOM
      1 C1         -1.1672   -1.4874    2.8831 C.3       1 <0>        -0.1986
      2 C2         -0.6144   -2.5288    1.9445 C.2       1 <0>         0.3938
      3 O1          0.0040   -3.4754    2.3848 O.2       1 <0>        -0.4473
      4 C3         -0.8236   -2.3983    0.5005 C.ar      1 <0>        -0.2215
      5 C4         -1.5325   -1.3032   -0.0124 C.ar      1 <0>        -0.0458
      6 C5         -1.7260   -1.1838   -1.3576 C.ar      1 <0>        -0.1773
      7 C6         -1.2228   -2.1457   -2.2302 C.ar      1 <0>         0.1947
      8 C7         -0.5184   -3.2360   -1.7406 C.ar      1 <0>        -0.1642
      9 C8         -0.3092   -3.3682   -0.3787 C.ar      1 <0>         0.2091
     10 O2          0.3830   -4.4291    0.1054 O.3       1 <0>        -0.4741
     11 C9          0.0231   -4.2727   -2.6910 C.3       1 <0>         0.1497
     12 H1          0.3028   -5.1663   -2.1330 H         1 <0>         0.0805
     13 C10         1.2534   -3.7136   -3.4085 C.3       1 <0>        -0.0865
     14 C11         1.8372   -4.7860   -4.3305 C.3       1 <0>         0.0281
     15 H2          1.0617   -5.1450   -5.0070 H         1 <0>         0.0552
     16 C12         2.9697   -4.1973   -5.1317 C.2       1 <0>         0.4774
     17 O3          4.1071   -4.6062   -4.9712 O.co2     1 <0>        -0.6803
     18 O4          2.7486   -3.3121   -5.9404 O.co2     1 <0>        -0.6988
     19 O5          2.3255   -5.8753   -3.5448 O.3       1 <0>        -0.3731
     20 C13         2.2603   -7.1419   -4.2031 C.3       1 <0>         0.0440
     21 O6         -0.9791   -4.6063   -3.6535 O.3       1 <0>        -0.3299
     22 C14        -1.7483   -5.7620   -3.3150 C.3       1 <0>         0.2235
     23 H3         -1.0781   -6.5818   -3.0565 H         1 <0>         0.0515
     24 C15        -2.6136   -6.1676   -4.5110 C.3       1 <0>         0.0676
     25 H4         -1.9721   -6.4376   -5.3498 H         1 <0>         0.0664
     26 C16        -3.4790   -7.3698   -4.1207 C.3       1 <0>         0.0791
     27 H5         -2.8380   -8.2189   -3.8837 H         1 <0>         0.0748
     28 C17        -4.3189   -7.0033   -2.8932 C.3       1 <0>         0.0948
     29 H6         -4.8969   -7.8710   -2.5751 H         1 <0>         0.0667
     30 C18        -3.3877   -6.5654   -1.7597 C.3       1 <0>         0.1098
     31 H7         -2.7391   -7.3958   -1.4808 H         1 <0>         0.0743
     32 O7         -2.5896   -5.4643   -2.1989 O.3       1 <0>        -0.3609
     33 C19        -4.2218   -6.1407   -0.5495 C.3       1 <0>         0.0928
     34 O8         -3.3541   -5.8432    0.5463 O.3       1 <0>        -0.5659
     35 O9         -5.2065   -5.9334   -3.2240 O.3       1 <0>        -0.5264
     36 O10        -4.3416   -7.7108   -5.2078 O.3       1 <0>        -0.5513
     37 O11        -3.4540   -5.0741   -4.8851 O.3       1 <0>        -0.5254
     38 O12        -1.4228   -2.0159   -3.5658 O.3       1 <0>        -0.4798
     39 H8         -0.4263   -0.7017    3.0310 H         1 <0>         0.0941
     40 H9         -2.0728   -1.0570    2.4556 H         1 <0>         0.0831
     41 H10        -1.4023   -1.9502    3.8415 H         1 <0>         0.0841
     42 H11        -1.9260   -0.5534    0.6579 H         1 <0>         0.1347
     43 H12        -2.2731   -0.3385   -1.7481 H         1 <0>         0.1331
     44 H13        -0.1677   -5.1963    0.3132 H         1 <0>         0.3958
     45 H14         0.9655   -2.8441   -3.9993 H         1 <0>         0.0824
     46 H15         2.0018   -3.4210   -2.6721 H         1 <0>         0.0805
     47 H16         2.8580   -7.1091   -5.1141 H         1 <0>         0.0411
     48 H17         2.6489   -7.9158   -3.5413 H         1 <0>         0.0730
     49 H18         1.2243   -7.3669   -4.4563 H         1 <0>         0.0190
     50 H19        -4.8043   -5.2548   -0.8025 H         1 <0>         0.0668
     51 H20        -4.8953   -6.9508   -0.2700 H         1 <0>         0.0578
     52 H21        -3.8158   -5.5662    1.3496 H         1 <0>         0.3795
     53 H22        -5.8231   -6.1408   -3.9395 H         1 <0>         0.3810
     54 H23        -3.8748   -7.9480   -6.0208 H         1 <0>         0.3855
     55 H24        -2.9709   -4.2763   -5.1405 H         1 <0>         0.3860
     56 H25        -0.7275   -1.5220   -4.0215 H         1 <0>         0.3960
@<TRIPOS>BOND
     1    1    2 1
     2    1   39 1
     3    1   40 1
     4    1   41 1
     5    2    3 2
     6    2    4 1
     7    4    9 ar
     8    4    5 ar
     9    5    6 ar
    10    5   42 1
    11    6    7 ar
    12    6   43 1
    13    7    8 ar
    14    7   38 1
    15    8    9 ar
    16    8   11 1
    17    9   10 1
    18   10   44 1
    19   11   12 1
    20   11   13 1
    21   11   21 1
    22   13   14 1
    23   13   45 1
    24   13   46 1
    25   14   15 1
    26   14   16 1
    27   14   19 1
    28   16   17 2
    29   16   18 1
    30   19   20 1
    31   20   47 1
    32   20   48 1
    33   20   49 1
    34   21   22 1
    35   22   23 1
    36   22   32 1
    37   22   24 1
    38   24   25 1
    39   24   26 1
    40   24   37 1
    41   26   27 1
    42   26   28 1
    43   26   36 1
    44   28   29 1
    45   28   30 1
    46   28   35 1
    47   30   31 1
    48   30   32 1
    49   30   33 1
    50   33   34 1
    51   33   50 1
    52   33   51 1
    53   34   52 1
    54   35   53 1
    55   36   54 1
    56   37   55 1
    57   38   56 1
@<TRIPOS>MOLECULE
ZINC06490192
   50    52     0     0     0
SMALL
USER_CHARGES
6-[[1-ethyl-3-(2-methoxyethylcarbamoyl)pyrazol-4-yl]carbamoyl]bicyclo[2.2.1]hept-2-ene-5-carboxylic acid
@<TRIPOS>ATOM
      1 C1         -3.1759    5.3582    5.1865 C.3       1 <0>        -0.1673
      2 C2         -3.2376    4.1597    6.1357 C.3       1 <0>         0.1250
      3 N1         -2.3585    3.0980    5.6395 N.pl3     1 <0>        -0.2790
      4 C3         -1.3636    2.5150    6.3562 C.2       1 <0>        -0.0471
      5 C4         -0.7842    1.5852    5.5513 C.2       1 <0>         0.1187
      6 C5         -1.4931    1.6544    4.3241 C.2       1 <0>        -0.0419
      7 N2         -2.4138    2.5890    4.4615 N.2       1 <0>        -0.2548
      8 C6         -1.2435    0.8397    3.1201 C.2       1 <0>         0.6089
      9 O1         -0.3546    0.0100    3.1210 O.2       1 <0>        -0.5208
     10 N3         -2.0006    1.0149    2.0189 N.am      1 <0>        -0.7190
     11 C7         -1.7527    0.2057    0.8231 C.3       1 <0>         0.1227
     12 C8         -2.7431    0.6006   -0.2742 C.3       1 <0>         0.0500
     13 O2         -2.4980    1.9506   -0.6737 O.3       1 <0>        -0.3852
     14 C9         -3.3738    2.4210   -1.7003 C.3       1 <0>         0.0314
     15 N4          0.2884    0.7369    5.8670 N.am      1 <0>        -0.6146
     16 C10         0.8570    0.7953    7.0875 C.2       1 <0>         0.5345
     17 O3          0.4417    1.5809    7.9131 O.2       1 <0>        -0.5271
     18 C11         2.0088   -0.1155    7.4265 C.3       1 <0>        -0.0932
     19 H1          1.7618   -1.1495    7.1858 H         1 <0>         0.0882
     20 C12         2.3912    0.0209    8.9348 C.3       1 <0>        -0.0485
     21 H2          1.7493   -0.5008    9.6447 H         1 <0>         0.0933
     22 C13         3.8984   -0.4252    8.8869 C.3       1 <0>        -0.1223
     23 C14         4.2861    0.6772    7.8345 C.3       1 <0>        -0.0649
     24 H3          5.3411    0.7517    7.5708 H         1 <0>         0.0907
     25 C15         3.2905    0.3263    6.6786 C.3       1 <0>        -0.1266
     26 H4          3.6794   -0.4899    6.0697 H         1 <0>         0.0779
     27 C16         3.0158    1.5394    5.8277 C.2       1 <0>         0.4598
     28 O4          3.0723    2.6439    6.3143 O.co2     1 <0>        -0.6137
     29 C17         3.6639    1.9082    8.5047 C.2       1 <0>        -0.1008
     30 C18         2.5720    1.5301    9.1387 C.2       1 <0>        -0.1826
     31 H5         -3.8299    6.1481    5.5557 H         1 <0>         0.0753
     32 H6         -2.1520    5.7285    5.1351 H         1 <0>         0.0651
     33 H7         -3.5017    5.0516    4.1926 H         1 <0>         0.0715
     34 H8         -4.2614    3.7894    6.1871 H         1 <0>         0.0886
     35 H9         -2.9117    4.4663    7.1296 H         1 <0>         0.1018
     36 H10        -1.0854    2.7460    7.3739 H         1 <0>         0.2012
     37 H11        -2.7097    1.6768    2.0182 H         1 <0>         0.4063
     38 H12        -1.8805   -0.8493    1.0654 H         1 <0>         0.0833
     39 H13        -0.7349    0.3774    0.4729 H         1 <0>         0.0791
     40 H14        -2.6179   -0.0605   -1.1317 H         1 <0>         0.0656
     41 H15        -3.7608    0.5134    0.1063 H         1 <0>         0.0558
     42 H16        -3.1232    3.4527   -1.9471 H         1 <0>         0.0858
     43 H17        -3.2617    1.7977   -2.5874 H         1 <0>         0.0402
     44 H18        -4.4046    2.3715   -1.3494 H         1 <0>         0.0403
     45 H19         0.6205    0.1087    5.2067 H         1 <0>         0.4275
     46 H20         4.4052   -0.2873    9.8420 H         1 <0>         0.0722
     47 H21         4.0224   -1.4364    8.4994 H         1 <0>         0.0680
     48 H22         4.0542    2.9144    8.4641 H         1 <0>         0.1165
     49 H23         1.9159    2.1739    9.7057 H         1 <0>         0.1165
     50 O5          2.7084    1.3929    4.5294 O.co2     1 <0>        -0.7521
@<TRIPOS>BOND
     1    1    2 1
     2    1   31 1
     3    1   32 1
     4    1   33 1
     5    2    3 1
     6    2   34 1
     7    2   35 1
     8    3    7 1
     9    3    4 1
    10    4    5 2
    11    4   36 1
    12    5    6 1
    13    5   15 1
    14    6    7 2
    15    6    8 1
    16    8    9 2
    17    8   10 am
    18   10   11 1
    19   10   37 1
    20   11   12 1
    21   11   38 1
    22   11   39 1
    23   12   13 1
    24   12   40 1
    25   12   41 1
    26   13   14 1
    27   14   42 1
    28   14   43 1
    29   14   44 1
    30   15   16 am
    31   15   45 1
    32   16   17 2
    33   16   18 1
    34   18   19 1
    35   18   25 1
    36   18   20 1
    37   20   21 1
    38   20   30 1
    39   20   22 1
    40   22   23 1
    41   22   46 1
    42   22   47 1
    43   23   24 1
    44   23   25 1
    45   23   29 1
    46   25   26 1
    47   25   27 1
    48   27   28 2
    49   27   50 1
    50   29   30 2
    51   29   48 1
    52   30   49 1
@<TRIPOS>MOLECULE
ZINC19923465
   52    54     0     0     0
SMALL
USER_CHARGES
(5R)-5-(3-ethoxy-4-hydroxy-phenyl)-4-(furan-2-carbonyl)-3-hydroxy-1-[2-(2-hydroxyethoxy)ethyl]-5H-pyrrol-2-one
@<TRIPOS>ATOM
      1 C1         -5.1733    4.0124    6.1729 C.3       1 <0>        -0.1486
      2 C2         -4.8479    3.5745    4.7434 C.3       1 <0>         0.0473
      3 O1         -4.2199    2.2912    4.7696 O.3       1 <0>        -0.3098
      4 C3         -3.7782    1.7956    3.5827 C.ar      1 <0>         0.0814
      5 C4         -3.9921    2.5046    2.4115 C.ar      1 <0>        -0.1323
      6 C5         -3.5428    1.9992    1.2058 C.ar      1 <0>        -0.0718
      7 C6         -2.8847    0.7841    1.1643 C.ar      1 <0>        -0.0972
      8 C7         -2.6631    0.0744    2.3298 C.ar      1 <0>        -0.1863
      9 C8         -3.1108    0.5753    3.5416 C.ar      1 <0>         0.1160
     10 O2         -2.8989   -0.1245    4.6883 O.3       1 <0>        -0.5037
     11 C9         -3.7763    2.7716   -0.0670 C.3       1 <0>         0.2580
     12 H1         -3.3813    2.1795   -0.9057 H         1 <0>         0.0726
     13 C10        -3.1291    4.1338    0.0257 C.2       1 <0>        -0.4772
     14 C11        -4.1206    5.0460   -0.0939 C.2       1 <0>         0.2833
     15 C12        -5.4075    4.3443   -0.2731 C.2       1 <0>         0.5119
     16 O3         -6.4850    4.8887   -0.4116 O.2       1 <0>        -0.5153
     17 N1         -5.2117    3.0134   -0.2546 N.am      1 <0>        -0.6065
     18 C13        -6.2477    1.9873   -0.3966 C.3       1 <0>         0.1399
     19 C14        -6.7966    1.6223    0.9841 C.3       1 <0>         0.0367
     20 O4         -7.4612    2.7551    1.5472 O.3       1 <0>        -0.3548
     21 C15        -8.0136    2.5196    2.8439 C.3       1 <0>         0.0600
     22 C16        -8.6968    3.7931    3.3462 C.3       1 <0>         0.0891
     23 O5         -9.8142    4.0962    2.5086 O.3       1 <0>        -0.5897
     24 O6         -3.9585    6.3896   -0.0582 O.3       1 <0>        -0.6064
     25 C17        -1.7008    4.4132    0.2152 C.2       1 <0>         0.4911
     26 O7         -1.3217    5.5582    0.3880 O.2       1 <0>        -0.4764
     27 C18        -0.7303    3.3148    0.1967 C.2       1 <0>        -0.0437
     28 C19         0.6137    3.4139    0.4857 C.2       1 <0>        -0.1712
     29 C20         1.1487    2.1255    0.3439 C.2       1 <0>        -0.2219
     30 C21         0.1333    1.3086   -0.0180 C.2       1 <0>        -0.0443
     31 O8         -0.9929    2.0274   -0.1102 O.3       1 <0>        -0.1430
     32 H2         -5.6567    5.0003    6.1527 H         1 <0>         0.0771
     33 H3         -4.2442    4.0707    6.7590 H         1 <0>         0.0651
     34 H4         -5.8529    3.2810    6.6347 H         1 <0>         0.0625
     35 H5         -5.7770    3.5162    4.1573 H         1 <0>         0.0593
     36 H6         -4.1684    4.3059    4.2815 H         1 <0>         0.0648
     37 H7         -4.5094    3.4522    2.4407 H         1 <0>         0.1303
     38 H8         -2.5394    0.3903    0.2197 H         1 <0>         0.1239
     39 H9         -2.1448   -0.8725    2.2952 H         1 <0>         0.1260
     40 H10        -2.3712   -1.0891    4.6544 H         1 <0>         0.4201
     41 H11        -7.0634    2.3744   -1.0249 H         1 <0>         0.0873
     42 H12        -5.8152    1.0923   -0.8676 H         1 <0>         0.0899
     43 H13        -7.5092    0.7899    0.8871 H         1 <0>         0.0493
     44 H14        -5.9671    1.3202    1.6403 H         1 <0>         0.0569
     45 H15        -8.7517    1.7060    2.7858 H         1 <0>         0.0491
     46 H16        -7.2096    2.2362    3.5391 H         1 <0>         0.0575
     47 H17        -9.0434    3.6403    4.3789 H         1 <0>         0.0508
     48 H18        -7.9812    4.6281    3.3194 H         1 <0>         0.0514
     49 H19       -10.4321    4.9824    2.7153 H         1 <0>         0.4033
     50 H20         1.1496    4.3085    0.7666 H         1 <0>         0.1487
     51 H21         2.1789    1.8390    0.4955 H         1 <0>         0.1435
     52 H22         0.2179    0.2486   -0.2066 H         1 <0>         0.1961
@<TRIPOS>BOND
     1    1    2 1
     2    1   32 1
     3    1   33 1
     4    1   34 1
     5    2    3 1
     6    2   35 1
     7    2   36 1
     8    3    4 1
     9    4    9 ar
    10    4    5 ar
    11    5    6 ar
    12    5   37 1
    13    6    7 ar
    14    6   11 1
    15    7    8 ar
    16    7   38 1
    17    8    9 ar
    18    8   39 1
    19    9   10 1
    20   10   40 1
    21   11   12 1
    22   11   17 1
    23   11   13 1
    24   13   14 2
    25   13   25 1
    26   14   15 1
    27   14   24 1
    28   15   16 2
    29   15   17 am
    30   17   18 1
    31   18   19 1
    32   18   41 1
    33   18   42 1
    34   19   20 1
    35   19   43 1
    36   19   44 1
    37   20   21 1
    38   21   22 1
    39   21   45 1
    40   21   46 1
    41   22   23 1
    42   22   47 1
    43   22   48 1
    44   23   49 1
    45   25   26 2
    46   25   27 1
    47   27   31 1
    48   27   28 2
    49   28   29 1
    50   28   50 1
    51   29   30 2
    52   29   51 1
    53   30   31 1
    54   30   52 1
@<TRIPOS>MOLECULE
ZINC39862043
   39    40     0     0     0
SMALL
USER_CHARGES

@<TRIPOS>ATOM
      1 C1          0.0362    1.4294    0.2167 C.ar      1 <0>        -0.0688
      2 C2          1.1715    2.0628   -0.2593 C.ar      1 <0>        -0.1163
      3 C3          2.3328    1.3434   -0.4814 C.ar      1 <0>        -0.0583
      4 C4          2.3675   -0.0119   -0.2297 C.ar      1 <0>        -0.0374
      5 C5          1.2244   -0.6596    0.2514 C.ar      1 <0>         0.0097
      6 C6          0.0541    0.0753    0.4734 C.ar      1 <0>        -0.1087
      7 C7          1.2524   -2.1044    0.5220 C.2       1 <0>        -0.1052
      8 C8          0.0931   -2.7869    0.6761 C.2       1 <0>        -0.0884
      9 C9          0.1199   -4.1715    0.9354 C.2       1 <0>         0.0061
     10 C10        -1.0483   -4.8592    1.0906 C.2       1 <0>        -0.1703
     11 C11        -1.2664   -6.2908    1.3703 C.2       1 <0>         0.5397
     12 O1         -0.3362   -7.0653    1.5012 O.2       1 <0>        -0.4542
     13 N1         -2.5226   -6.6910    1.4724 N.am      1 <0>        -0.4864
     14 C12        -3.5502   -5.8297    1.3267 C.2       1 <0>         0.2448
     15 S1         -5.2290   -6.1512    1.4220 S.2       1 <0>        -0.2018
     16 S2         -2.7349   -4.2712    1.0185 S.3       1 <0>        -0.0111
     17 C13        -2.8045   -8.1017    1.7494 C.3       1 <0>         0.0656
     18 H1         -1.8661   -8.6495    1.8361 H         1 <0>         0.1150
     19 C14        -3.5857   -8.2179    3.0598 C.3       1 <0>        -0.1596
     20 C15        -2.7214   -7.7521    4.2030 C.2       1 <0>         0.5113
     21 O2         -1.5917   -7.3652    3.9906 O.2       1 <0>        -0.5368
     22 N2         -3.2038   -7.7653    5.4614 N.am      1 <0>        -0.8585
     23 C16        -3.6222   -8.6810    0.6239 C.2       1 <0>         0.4959
     24 O3         -3.5207   -9.8629    0.3423 O.co2     1 <0>        -0.6723
     25 O4         -4.3852   -7.9678   -0.0051 O.co2     1 <0>        -0.6410
     26 N3          3.6117   -0.7803   -0.4687 N.pl3     1 <0>         0.0292
     27 O5          4.6860   -0.2822   -0.2249 O.2       1 <0>        -0.1555
     28 O6          3.5526   -1.9053   -0.9074 O.3       1 <0>        -0.1437
     29 H2         -0.8648    1.9988    0.3917 H         1 <0>         0.1459
     30 H3          1.1508    3.1240   -0.4587 H         1 <0>         0.1471
     31 H4          3.2142    1.8448   -0.8532 H         1 <0>         0.1485
     32 H5         -0.8324   -0.4173    0.8447 H         1 <0>         0.1511
     33 H6          2.1975   -2.6214    0.5979 H         1 <0>         0.1432
     34 H7         -0.8521   -2.2699    0.6001 H         1 <0>         0.1283
     35 H8          1.0650   -4.6885    1.0113 H         1 <0>         0.1547
     36 H9         -4.4809   -7.5984    3.0052 H         1 <0>         0.1269
     37 H10        -3.8723   -9.2571    3.2209 H         1 <0>         0.1143
     38 H11        -4.1073   -8.0747    5.6312 H         1 <0>         0.4009
     39 H12        -2.6474   -7.4655    6.1972 H         1 <0>         0.3959
@<TRIPOS>BOND
     1    1    6 ar
     2    1    2 ar
     3    1   29 1
     4    2    3 ar
     5    2   30 1
     6    3    4 ar
     7    3   31 1
     8    4    5 ar
     9    4   26 1
    10    5    6 ar
    11    5    7 1
    12    6   32 1
    13    7    8 2
    14    7   33 1
    15    8    9 1
    16    8   34 1
    17    9   10 2
    18    9   35 1
    19   10   16 1
    20   10   11 1
    21   11   12 2
    22   11   13 am
    23   13   14 1
    24   13   17 1
    25   14   15 2
    26   14   16 1
    27   17   18 1
    28   17   19 1
    29   17   23 1
    30   19   20 1
    31   19   36 1
    32   19   37 1
    33   20   21 2
    34   20   22 am
    35   22   38 1
    36   22   39 1
    37   23   24 2
    38   23   25 1
    39   26   27 2
    40   26   28 1
@<TRIPOS>MOLECULE
ZINC51265246
   46    48     0     0     0
SMALL
USER_CHARGES

@<TRIPOS>ATOM
      1 C1          0.3956    1.4059    1.2262 C.ar      1 <0>        -0.1158
      2 C2          1.2049    2.0261    0.2840 C.ar      1 <0>         0.2671
      3 C3          2.0652    1.2673   -0.4980 C.ar      1 <0>        -0.0948
      4 C4          2.1150   -0.1044   -0.3400 C.ar      1 <0>        -0.0365
      5 C5          1.3075   -0.7273    0.5997 C.ar      1 <0>         0.0204
      6 C6          0.4466    0.0301    1.3861 C.ar      1 <0>         0.1261
      7 O1         -0.3480   -0.5628    2.3187 O.3       1 <0>        -0.2933
      8 C7         -0.5433   -1.9756    2.1937 C.3       1 <0>         0.0169
      9 C8          0.8225   -2.6291    1.9433 C.3       1 <0>         0.0208
     10 O2          1.3677   -2.0809    0.7384 O.3       1 <0>        -0.3012
     11 N1          2.9291    1.9281   -1.5021 N.pl3     1 <0>         0.0534
     12 O3          3.6339    1.2627   -2.2248 O.2       1 <0>        -0.1713
     13 O4          2.9299    3.1332   -1.5995 O.3       1 <0>        -0.1663
     14 N2          1.1534    3.4158    0.1223 N.pl3     1 <0>        -0.6648
     15 C9         -0.0469    4.0560    0.1182 C.2       1 <0>         0.5423
     16 O5         -1.1891    3.3449    0.1577 O.3       1 <0>        -0.6167
     17 C10        -0.0941    5.4527    0.0728 C.2       1 <0>        -0.4384
     18 C11         1.1210    6.2092    0.0307 C.1       1 <0>         0.2958
     19 N3          2.0850    6.8093   -0.0027 N.1       1 <0>        -0.5280
     20 C12        -1.3372    6.1157    0.0684 C.2       1 <0>         0.4197
     21 O6         -2.3683    5.4738    0.1041 O.2       1 <0>        -0.5016
     22 C13        -1.3881    7.6211    0.0195 C.3       1 <0>        -0.1565
     23 C14        -2.8469    8.0825    0.0249 C.3       1 <0>        -0.1006
     24 C15        -2.8986    9.6108   -0.0248 C.3       1 <0>         0.0791
     25 H1         -2.3268    9.9806   -0.8759 H         1 <0>         0.0681
     26 C16        -4.3673   10.0967   -0.1116 C.3       1 <0>        -0.1521
     27 C17        -4.2415   11.5241    0.4873 C.3       1 <0>        -0.1565
     28 C18        -3.1385   11.3370    1.5511 C.3       1 <0>         0.0496
     29 O7         -2.3890   10.1669    1.1977 O.3       1 <0>        -0.3759
     30 H2         -0.2708    1.9961    1.8378 H         1 <0>         0.1686
     31 H3          2.7842   -0.6929   -0.9500 H         1 <0>         0.1623
     32 H4         -0.9763   -2.3696    3.1130 H         1 <0>         0.1267
     33 H5         -1.2087   -2.1819    1.3553 H         1 <0>         0.0837
     34 H6          1.4901   -2.4171    2.7785 H         1 <0>         0.0793
     35 H7          0.7000   -3.7067    1.8344 H         1 <0>         0.1253
     36 H8          1.9735    3.9221    0.0133 H         1 <0>         0.4184
     37 H9         -0.8744    8.0305    0.8893 H         1 <0>         0.0823
     38 H10        -0.8995    7.9718   -0.8895 H         1 <0>         0.0739
     39 H11        -3.3606    7.6731   -0.8449 H         1 <0>         0.0773
     40 H12        -3.3356    7.7318    0.9339 H         1 <0>         0.0724
     41 H13        -4.7084   10.1335   -1.1462 H         1 <0>         0.0810
     42 H14        -5.0240    9.4728    0.4946 H         1 <0>         0.0802
     43 H15        -3.9286   12.2382   -0.2744 H         1 <0>         0.0734
     44 H16        -5.1782   11.8345    0.9502 H         1 <0>         0.0779
     45 H17        -2.4814   12.2067    1.5594 H         1 <0>         0.0630
     46 H18        -3.5911   11.2046    2.5338 H         1 <0>         0.0653
@<TRIPOS>BOND
     1    1    6 ar
     2    1    2 ar
     3    1   30 1
     4    2    3 ar
     5    2   14 1
     6    3    4 ar
     7    3   11 1
     8    4    5 ar
     9    4   31 1
    10    5   10 1
    11    5    6 ar
    12    6    7 1
    13    7    8 1
    14    8    9 1
    15    8   32 1
    16    8   33 1
    17    9   10 1
    18    9   34 1
    19    9   35 1
    20   11   12 2
    21   11   13 1
    22   14   15 1
    23   14   36 1
    24   15   16 1
    25   15   17 2
    26   17   18 1
    27   17   20 1
    28   18   19 3
    29   20   21 2
    30   20   22 1
    31   22   23 1
    32   22   37 1
    33   22   38 1
    34   23   24 1
    35   23   39 1
    36   23   40 1
    37   24   25 1
    38   24   29 1
    39   24   26 1
    40   26   27 1
    41   26   41 1
    42   26   42 1
    43   27   28 1
    44   27   43 1
    45   27   44 1
    46   28   29 1
    47   28   45 1
    48   28   46 1
@<TRIPOS>MOLECULE
ZINC64099964
   47    48     0     0     0
SMALL
USER_CHARGES

@<TRIPOS>ATOM
      1 C1         -0.2184    1.0008   -0.0220 C.3       1 <0>        -0.1578
      2 C2         -0.0350   -0.5158   -0.1064 C.3       1 <0>         0.1219
      3 C3          0.7130   -0.9998    1.1091 C.2       1 <0>         0.4904
      4 O1          0.0339   -1.4651    2.1781 O.3       1 <0>        -0.7029
      5 N1          2.0029   -0.9692    1.1274 N.2       1 <0>        -1.0673
      6 S1          2.8248   -1.5010    2.4630 S.o2      1 <0>         2.6786
      7 O2          2.5144   -0.5994    3.5166 O.2       1 <0>        -1.0122
      8 O3          2.5825   -2.8978    2.5595 O.2       1 <0>        -1.0077
      9 C4          4.5439   -1.3101    2.1270 C.2       1 <0>        -0.7033
     10 C5          5.3767   -2.2617    1.5302 C.2       1 <0>        -0.0441
     11 C6          6.6370   -1.7075    1.4561 C.2       1 <0>        -0.0799
     12 N2          6.5670   -0.4442    1.9982 N.pl3     1 <0>        -0.4092
     13 C7          5.2920   -0.2133    2.3957 C.2       1 <0>         0.1340
     14 C8          7.6835    0.4965    2.1195 C.3       1 <0>         0.0627
     15 C9          7.8344   -2.3478    0.9014 C.2       1 <0>         0.6025
     16 O4          8.8692   -1.7160    0.7970 O.2       1 <0>        -0.5590
     17 N3          7.7886   -3.6359    0.5073 N.am      1 <0>        -0.8432
     18 O5         -1.3154   -1.1481   -0.1608 O.3       1 <0>        -0.3511
     19 C10        -1.8177   -1.3306   -1.4861 C.3       1 <0>         0.0656
     20 C11        -3.1859   -2.0124   -1.4236 C.3       1 <0>         0.0932
     21 C12        -3.6688   -2.3193   -2.8436 C.3       1 <0>        -0.1481
     22 C13        -5.0646   -2.9466   -2.7755 C.3       1 <0>        -0.1209
     23 C14        -6.0059   -1.9916   -2.0351 C.3       1 <0>        -0.1566
     24 C15        -5.4328   -1.6973   -0.6464 C.3       1 <0>         0.0587
     25 O6         -4.1219   -1.1446   -0.7808 O.3       1 <0>        -0.3652
     26 H1          0.7582    1.4831    0.0195 H         1 <0>         0.0702
     27 H2         -0.7594    1.3508   -0.9011 H         1 <0>         0.0529
     28 H3         -0.7846    1.2489    0.8757 H         1 <0>         0.0645
     29 H4          0.5312   -0.7640   -1.0041 H         1 <0>         0.0734
     30 H5          5.0873   -3.2455    1.1914 H         1 <0>         0.1557
     31 H6          4.9319    0.6957    2.8544 H         1 <0>         0.1865
     32 H7          7.6947    1.1605    1.2552 H         1 <0>         0.0787
     33 H8          7.5649    1.0858    3.0288 H         1 <0>         0.0844
     34 H9          8.6215   -0.0568    2.1649 H         1 <0>         0.1033
     35 H10         6.9469   -4.1179    0.5220 H         1 <0>         0.4073
     36 H11         8.5972   -4.0809    0.2091 H         1 <0>         0.4072
     37 H12        -1.9169   -0.3608   -1.9738 H         1 <0>         0.0520
     38 H13        -1.1268   -1.9538   -2.0539 H         1 <0>         0.0597
     39 H14        -3.1039   -2.9409   -0.8587 H         1 <0>         0.0678
     40 H15        -3.7122   -1.3960   -3.4211 H         1 <0>         0.0721
     41 H16        -2.9792   -3.0161   -3.3201 H         1 <0>         0.0749
     42 H17        -5.4377   -3.1163   -3.7855 H         1 <0>         0.0658
     43 H18        -5.0125   -3.8949   -2.2405 H         1 <0>         0.0644
     44 H19        -6.0965   -1.0616   -2.5964 H         1 <0>         0.0694
     45 H20        -6.9878   -2.4539   -1.9335 H         1 <0>         0.0698
     46 H21        -6.0767   -0.9846   -0.1310 H         1 <0>         0.0914
     47 H22        -5.3803   -2.6218   -0.0714 H         1 <0>         0.0496
@<TRIPOS>BOND
     1    1    2 1
     2    1   26 1
     3    1   27 1
     4    1   28 1
     5    2    3 1
     6    2   18 1
     7    2   29 1
     8    3    4 1
     9    3    5 2
    10    5    6 1
    11    6    7 2
    12    6    8 2
    13    6    9 1
    14    9   13 2
    15    9   10 1
    16   10   11 2
    17   10   30 1
    18   11   12 1
    19   11   15 1
    20   12   13 1
    21   12   14 1
    22   13   31 1
    23   14   32 1
    24   14   33 1
    25   14   34 1
    26   15   16 2
    27   15   17 am
    28   17   35 1
    29   17   36 1
    30   18   19 1
    31   19   20 1
    32   19   37 1
    33   19   38 1
    34   20   25 1
    35   20   21 1
    36   20   39 1
    37   21   22 1
    38   21   40 1
    39   21   41 1
    40   22   23 1
    41   22   42 1
    42   22   43 1
    43   23   24 1
    44   23   44 1
    45   23   45 1
    46   24   25 1
    47   24   46 1
    48   24   47 1
@<TRIPOS>MOLECULE
ZINC02570945
   35    36     0     0     0
SMALL
USER_CHARGES
2-[(4-chlorophenyl)methylamino]-N-(4-iodophenyl)-acetamide
@<TRIPOS>ATOM
      1 C1         -0.3634    2.7875    1.8166 C.ar      1 <0>        -0.0759
      2 C2         -1.0160    3.2332    2.9506 C.ar      1 <0>        -0.1082
      3 C3         -2.0120    2.4623    3.5231 C.ar      1 <0>        -0.0028
      4 C4         -2.3582    1.2484    2.9568 C.ar      1 <0>        -0.1081
      5 C5         -1.7088    0.8065    1.8195 C.ar      1 <0>        -0.0759
      6 C6         -0.7136    1.5771    1.2479 C.ar      1 <0>        -0.1698
      7 C7         -0.0060    1.0947    0.0079 C.3       1 <0>         0.0529
      8 C8         -0.0584    1.1226   -2.4126 C.3       1 <0>        -0.0235
      9 C9         -0.8188    1.6331   -3.6094 C.2       1 <0>         0.4977
     10 O1         -1.8148    2.3072   -3.4526 O.2       1 <0>        -0.5082
     11 N1         -0.3920    1.3406   -4.8539 N.am      1 <0>        -0.6458
     12 C10        -1.1498    1.7317   -5.9635 C.ar      1 <0>         0.1345
     13 C11        -1.1980    0.9245   -7.0925 C.ar      1 <0>        -0.1262
     14 C12        -1.9521    1.3098   -8.1835 C.ar      1 <0>        -0.0644
     15 C13        -2.6487    2.5047   -8.1573 C.ar      1 <0>        -0.1020
     16 C14        -2.5976    3.3138   -7.0363 C.ar      1 <0>        -0.0664
     17 C15        -1.8505    2.9304   -5.9398 C.ar      1 <0>        -0.1104
     18 I1         -3.7838    3.0898   -9.8180 I         1 <0>        -0.0216
     19 Cl1        -2.8276    3.0183    4.9512 Cl        1 <0>        -0.0355
     20 H1          0.4172    3.3871    1.3721 H         1 <0>         0.1424
     21 H2         -0.7453    4.1809    3.3922 H         1 <0>         0.1481
     22 H3         -3.1359    0.6464    3.4030 H         1 <0>         0.1481
     23 H4         -1.9792   -0.1409    1.3772 H         1 <0>         0.1423
     24 H5          0.0167    0.0050    0.0033 H         1 <0>         0.1430
     25 H6          1.0138    1.4794   -0.0013 H         1 <0>         0.1431
     26 H7          0.9611    1.5075   -2.4386 H         1 <0>         0.1661
     27 H8         -0.0360    0.0330   -2.4340 H         1 <0>         0.1665
     28 H9          0.4404    0.8590   -4.9805 H         1 <0>         0.4226
     29 H10        -0.6503   -0.0060   -7.1155 H         1 <0>         0.1391
     30 H11        -1.9941    0.6800   -9.0598 H         1 <0>         0.1410
     31 H12        -3.1427    4.2459   -7.0185 H         1 <0>         0.1386
     32 H13        -1.8115    3.5621   -5.0647 H         1 <0>         0.1454
     33 N2         -0.7301    1.5807   -1.1818 N.4       1 <0>        -0.5071
     34 H14        -0.7513    2.6072   -1.1696 H         1 <0>         0.4401
     35 H15        -1.6906    1.2183   -1.1652 H         1 <0>         0.4404
@<TRIPOS>BOND
     1    1    6 ar
     2    1    2 ar
     3    1   20 1
     4    2    3 ar
     5    2   21 1
     6    3    4 ar
     7    3   19 1
     8    4    5 ar
     9    4   22 1
    10    5    6 ar
    11    5   23 1
    12    6    7 1
    13    7   24 1
    14    7   25 1
    15    7   33 1
    16    8    9 1
    17    8   26 1
    18    8   27 1
    19    8   33 1
    20    9   10 2
    21    9   11 am
    22   11   12 1
    23   11   28 1
    24   12   17 ar
    25   12   13 ar
    26   13   14 ar
    27   13   29 1
    28   14   15 ar
    29   14   30 1
    30   15   16 ar
    31   15   18 1
    32   16   17 ar
    33   16   31 1
    34   17   32 1
    35   33   34 1
    36   33   35 1
@<TRIPOS>MOLECULE
ZINC19967833
   42    43     0     0     0
SMALL
USER_CHARGES
(S)-(3,4-diethoxyphenyl)-(2-iodophenyl)methanamine
@<TRIPOS>ATOM
      1 C1         -0.1645    9.3341   -0.3061 C.3       1 <0>        -0.1581
      2 C2          0.1032    7.8282   -0.3460 C.3       1 <0>         0.0494
      3 O1         -1.0820    7.1445   -0.7579 O.3       1 <0>        -0.2945
      4 C3         -1.0139    5.7891   -0.8459 C.ar      1 <0>         0.1376
      5 C4          0.1676    5.1320   -0.5419 C.ar      1 <0>        -0.1684
      6 C5          0.2334    3.7537   -0.6260 C.ar      1 <0>        -0.1060
      7 C6         -0.8745    3.0288   -1.0239 C.ar      1 <0>        -0.1457
      8 C7         -2.0563    3.6781   -1.3286 C.ar      1 <0>        -0.1507
      9 C8         -2.1307    5.0589   -1.2409 C.ar      1 <0>         0.1195
     10 O2         -3.2924    5.6992   -1.5407 O.3       1 <0>        -0.2918
     11 C9         -4.3974    4.8856   -1.9393 C.3       1 <0>         0.0495
     12 C10        -5.6064    5.7760   -2.2335 C.3       1 <0>        -0.1589
     13 C11        -0.7955    1.5269   -1.1198 C.3       1 <0>         0.1405
     14 H1         -1.8037    1.0902   -1.0664 H         1 <0>         0.1480
     15 C12        -0.1304    1.1406   -2.4157 C.ar      1 <0>        -0.0964
     16 C13         1.2066    0.7893   -2.4287 C.ar      1 <0>        -0.1252
     17 C14         1.8155    0.4303   -3.6165 C.ar      1 <0>        -0.0806
     18 C15         1.0904    0.4327   -4.7937 C.ar      1 <0>        -0.0907
     19 C16        -0.2449    0.7888   -4.7822 C.ar      1 <0>        -0.0677
     20 C17        -0.8558    1.1430   -3.5928 C.ar      1 <0>        -0.0759
     21 I1         -2.8801    1.6823   -3.5748 I         1 <0>        -0.0214
     22 N1         -0.0116    1.0048    0.0076 N.4       1 <0>        -0.6827
     23 H2          0.7479    9.8604    0.0110 H         1 <0>         0.0855
     24 H3         -0.9753    9.5436    0.4071 H         1 <0>         0.0709
     25 H4         -0.4585    9.6809   -1.3077 H         1 <0>         0.0710
     26 H5          0.9140    7.6187   -1.0592 H         1 <0>         0.0669
     27 H6          0.3973    7.4814    0.6556 H         1 <0>         0.0669
     28 H7          1.0357    5.6964   -0.2347 H         1 <0>         0.1471
     29 H8          1.1535    3.2425   -0.3842 H         1 <0>         0.1228
     30 H9         -2.9215    3.1091   -1.6353 H         1 <0>         0.1493
     31 H10        -4.1292    4.3207   -2.8443 H         1 <0>         0.0609
     32 H11        -4.6471    4.1840   -1.1297 H         1 <0>         0.0629
     33 H12        -6.4570    5.1497   -2.5403 H         1 <0>         0.0841
     34 H13        -5.3567    6.4775   -3.0431 H         1 <0>         0.0729
     35 H14        -5.8746    6.3409   -1.3285 H         1 <0>         0.0732
     36 H15         1.7745    0.7916   -1.5100 H         1 <0>         0.1259
     37 H16         2.8590    0.1520   -3.6257 H         1 <0>         0.1437
     38 H17         1.5673    0.1558   -5.7222 H         1 <0>         0.1458
     39 H18        -0.8112    0.7910   -5.7018 H         1 <0>         0.1435
     40 H19         0.0461   -0.0915   -0.0624 H         1 <0>         0.4619
     41 H20        -0.4971    1.2868    0.9535 H         1 <0>         0.4655
     42 H21         1.0032    1.4281   -0.0242 H         1 <0>         0.4495
@<TRIPOS>BOND
     1    1    2 1
     2    1   23 1
     3    1   24 1
     4    1   25 1
     5    2    3 1
     6    2   26 1
     7    2   27 1
     8    3    4 1
     9    4    9 ar
    10    4    5 ar
    11    5    6 ar
    12    5   28 1
    13    6    7 ar
    14    6   29 1
    15    7    8 ar
    16    7   13 1
    17    8    9 ar
    18    8   30 1
    19    9   10 1
    20   10   11 1
    21   11   12 1
    22   11   31 1
    23   11   32 1
    24   12   33 1
    25   12   34 1
    26   12   35 1
    27   13   14 1
    28   13   15 1
    29   13   22 1
    30   15   20 ar
    31   15   16 ar
    32   16   17 ar
    33   16   36 1
    34   17   18 ar
    35   17   37 1
    36   18   19 ar
    37   18   38 1
    38   19   20 ar
    39   19   39 1
    40   20   21 1
    41   22   40 1
    42   22   41 1
    43   22   42 1
@<TRIPOS>MOLECULE
ZINC13831074
   49    53     0     0     0
SMALL
USER_CHARGES

@<TRIPOS>ATOM
      1 C1         -0.0167    1.3782    0.0096 C.ar      1 <0>        -0.1066
      2 C2          1.1700    2.0882    0.0021 C.ar      1 <0>        -0.0735
      3 C3          2.3773    1.4175   -0.0134 C.ar      1 <0>        -0.1274
      4 C4          2.3989    0.0301   -0.0210 C.ar      1 <0>         0.1444
      5 C5          1.2072   -0.6797   -0.0130 C.ar      1 <0>        -0.1692
      6 C6          0.0021   -0.0041    0.0020 C.ar      1 <0>        -0.1151
      7 C7          1.2269   -2.1866   -0.0218 C.3       1 <0>         0.0950
      8 H1          2.0244   -2.5473    0.6278 H         1 <0>         0.1520
      9 C8          1.4555   -2.6918   -1.4497 C.3       1 <0>        -0.1520
     10 C9          1.1752   -4.1684   -1.5070 C.2       1 <0>         0.2802
     11 N1          0.5432   -4.7907   -0.5820 N.2       1 <0>        -0.5239
     12 C10         0.0331   -4.1553    0.6262 C.3       1 <0>         0.2581
     13 H2          0.7075   -4.3685    1.4555 H         1 <0>         0.1638
     14 N2         -0.0689   -2.7026    0.4496 N.4       1 <0>        -0.5380
     15 C11        -1.3312   -4.7125    0.9411 C.ar      1 <0>        -0.1246
     16 C12        -2.2683   -3.9244    1.5830 C.ar      1 <0>        -0.1220
     17 C13        -3.5198   -4.4350    1.8716 C.ar      1 <0>        -0.0786
     18 C14        -3.8347   -5.7347    1.5181 C.ar      1 <0>        -0.0688
     19 C15        -2.8968   -6.5229    0.8759 C.ar      1 <0>        -0.0818
     20 C16        -1.6473   -6.0098    0.5830 C.ar      1 <0>        -0.0530
     21 Br1        -5.5467   -6.4340    1.9133 Br        1 <0>        -0.0175
     22 C17         1.6471   -4.9319   -2.6767 C.ar      1 <0>        -0.0941
     23 C18         2.3441   -4.2853   -3.7006 C.ar      1 <0>        -0.0642
     24 C19         2.7847   -5.0008   -4.7927 C.ar      1 <0>        -0.1082
     25 C20         2.5382   -6.3642   -4.8807 C.ar      1 <0>         0.0782
     26 C21         1.8427   -7.0160   -3.8618 C.ar      1 <0>         0.0256
     27 C22         1.4035   -6.3052   -2.7615 C.ar      1 <0>        -0.0426
     28 O1          1.7336   -8.3379   -4.1857 O.3       1 <0>        -0.3021
     29 C23         2.0080   -8.4112   -5.5972 C.3       1 <0>         0.2113
     30 O2          2.8633   -7.2786   -5.8392 O.3       1 <0>        -0.2992
     31 O3          3.5855   -0.6321   -0.0368 O.3       1 <0>        -0.4925
     32 H3         -0.9596    1.9045    0.0259 H         1 <0>         0.1408
     33 H4          1.1527    3.1681    0.0080 H         1 <0>         0.1430
     34 H5          3.3038    1.9724   -0.0200 H         1 <0>         0.1459
     35 H6         -0.9260   -0.5563    0.0079 H         1 <0>         0.1195
     36 H7          0.7865   -2.1679   -2.1323 H         1 <0>         0.1277
     37 H8          2.4897   -2.5064   -1.7398 H         1 <0>         0.1505
     38 H9         -0.3045   -2.2705    1.3303 H         1 <0>         0.4335
     39 H10        -2.0222   -2.9098    1.8592 H         1 <0>         0.1248
     40 H11        -4.2517   -3.8193    2.3734 H         1 <0>         0.1468
     41 H12        -3.1423   -7.5377    0.5997 H         1 <0>         0.1481
     42 H13        -0.9163   -6.6238    0.0779 H         1 <0>         0.1531
     43 H14         2.5372   -3.2246   -3.6363 H         1 <0>         0.1470
     44 H15         3.3233   -4.4992   -5.5831 H         1 <0>         0.1494
     45 H16         0.8690   -6.8096   -1.9701 H         1 <0>         0.1497
     46 H17         2.5248   -9.3399   -5.8391 H         1 <0>         0.1419
     47 H18         1.0857   -8.3242   -6.1716 H         1 <0>         0.0942
     48 H19         3.9380   -0.8285    0.8420 H         1 <0>         0.4016
     49 H20        -0.7833   -2.4952   -0.2321 H         1 <0>         0.4289
@<TRIPOS>BOND
     1    1    6 ar
     2    1    2 ar
     3    1   32 1
     4    2    3 ar
     5    2   33 1
     6    3    4 ar
     7    3   34 1
     8    4    5 ar
     9    4   31 1
    10    5    6 ar
    11    5    7 1
    12    6   35 1
    13    7    8 1
    14    7   14 1
    15    7    9 1
    16    9   10 1
    17    9   36 1
    18    9   37 1
    19   10   11 2
    20   10   22 1
    21   11   12 1
    22   12   13 1
    23   12   14 1
    24   12   15 1
    25   14   38 1
    26   14   49 1
    27   15   20 ar
    28   15   16 ar
    29   16   17 ar
    30   16   39 1
    31   17   18 ar
    32   17   40 1
    33   18   19 ar
    34   18   21 1
    35   19   20 ar
    36   19   41 1
    37   20   42 1
    38   22   27 ar
    39   22   23 ar
    40   23   24 ar
    41   23   43 1
    42   24   25 ar
    43   24   44 1
    44   25   30 1
    45   25   26 ar
    46   26   27 ar
    47   26   28 1
    48   27   45 1
    49   28   29 1
    50   29   30 1
    51   29   46 1
    52   29   47 1
    53   31   48 1
@<TRIPOS>MOLECULE
ZINC39659783
   68    71     0     0     0
SMALL
USER_CHARGES

@<TRIPOS>ATOM
      1 C1          1.1291   -0.5389   -0.6435 C.ar      1 <0>        -0.1103
      2 C2          2.3095    0.1752   -0.6671 C.ar      1 <0>        -0.0452
      3 C3          2.3803    1.4212   -0.0711 C.ar      1 <0>        -0.1934
      4 C4          1.2672    1.9607    0.5540 C.ar      1 <0>         0.1540
      5 C5          0.0797    1.2551    0.5846 C.ar      1 <0>        -0.0973
      6 C6          0.0037   -0.0023   -0.0165 C.ar      1 <0>        -0.0786
      7 C7         -1.2639   -0.7629    0.0114 C.2       1 <0>         0.5893
      8 O1         -2.3218   -0.1768    0.1332 O.2       1 <0>        -0.5127
      9 N1         -1.2464   -2.1060   -0.0984 N.am      1 <0>        -0.6173
     10 C8         -0.0647   -2.9998   -0.1253 C.3       1 <0>         0.0976
     11 C9         -0.4869   -4.2304    0.7082 C.3       1 <0>        -0.1159
     12 H1         -0.1528   -4.1226    1.7402 H         1 <0>         0.1141
     13 C10        -2.0232   -4.2414    0.6411 C.3       1 <0>        -0.0722
     14 C11        -2.4053   -3.0236   -0.2129 C.3       1 <0>         0.1089
     15 C12        -2.5143   -5.5261   -0.0191 C.3       1 <0>        -0.1487
     16 C13        -4.0455   -5.5401   -0.0218 C.3       1 <0>        -0.0083
     17 N2         -4.5400   -5.4555    1.3576 N.4       1 <0>        -0.5044
     18 C14        -4.1414   -4.1751    1.9546 C.3       1 <0>        -0.0115
     19 C15        -2.6142   -4.1034    2.0410 C.3       1 <0>        -0.1347
     20 C16         0.0761   -5.4912    0.1045 C.2       1 <0>         0.5199
     21 O2          0.3461   -5.5296   -1.0772 O.2       1 <0>        -0.5186
     22 N3          0.2795   -6.5761    0.8779 N.am      1 <0>        -0.7237
     23 C17         0.8267   -7.8018    0.2910 C.3       1 <0>         0.1168
     24 C18        -0.3093   -8.6285   -0.3150 C.3       1 <0>        -0.1224
     25 C19         0.2742   -9.6826   -1.2579 C.3       1 <0>        -0.1275
     26 C20         1.3616   -9.0459   -2.1254 C.3       1 <0>        -0.1324
     27 C21         2.7223   -9.6397   -1.7555 C.3       1 <0>        -0.1239
     28 C22         3.1985   -9.0360   -0.4327 C.3       1 <0>        -0.1309
     29 C23         2.4263   -9.6712    0.7252 C.3       1 <0>        -0.1272
     30 C24         1.5281   -8.6189    1.3782 C.3       1 <0>        -0.1262
     31 F1          1.3435    3.1782    1.1346 F         1 <0>        -0.1115
     32 C25         3.6730    2.1951   -0.1010 C.3       1 <0>         0.5105
     33 F2          4.6450    1.4532   -0.7808 F         1 <0>        -0.1687
     34 F3          3.4720    3.4135   -0.7584 F         1 <0>        -0.1661
     35 F4          4.1022    2.4369    1.2084 F         1 <0>        -0.1674
     36 H2          1.0749   -1.5098   -1.1135 H         1 <0>         0.1543
     37 H3          3.1806   -0.2401   -1.1520 H         1 <0>         0.1607
     38 H4         -0.7875    1.6753    1.0723 H         1 <0>         0.1621
     39 H5          0.1653   -3.2949   -1.1490 H         1 <0>         0.1080
     40 H6          0.7942   -2.5080    0.3314 H         1 <0>         0.1019
     41 H7         -3.3052   -2.5510    0.1808 H         1 <0>         0.0930
     42 H8         -2.5539   -3.3211   -1.2510 H         1 <0>         0.0889
     43 H9         -2.1481   -5.5710   -1.0448 H         1 <0>         0.1259
     44 H10        -2.1434   -6.3863    0.5382 H         1 <0>         0.1001
     45 H11        -4.4154   -4.6886   -0.5930 H         1 <0>         0.1337
     46 H12        -4.3993   -6.4645   -0.4783 H         1 <0>         0.1397
     47 H13        -5.5465   -5.5262    1.3576 H         1 <0>         0.4349
     48 H14        -4.5089   -3.3561    1.3364 H         1 <0>         0.1345
     49 H15        -4.5659   -4.0932    2.9552 H         1 <0>         0.1405
     50 H16        -2.2470   -4.9125    2.6723 H         1 <0>         0.0969
     51 H17        -2.3184   -3.1451    2.4680 H         1 <0>         0.1186
     52 H18         0.0635   -6.5454    1.8230 H         1 <0>         0.3975
     53 H19         1.5435   -7.5430   -0.4883 H         1 <0>         0.1213
     54 H20        -0.8650   -9.1220    0.4823 H         1 <0>         0.0608
     55 H21        -0.9784   -7.9730   -0.8724 H         1 <0>         0.0606
     56 H22         0.7057  -10.4946   -0.6726 H         1 <0>         0.0771
     57 H23        -0.5164  -10.0759   -1.8970 H         1 <0>         0.0627
     58 H24         1.1515   -9.2458   -3.1762 H         1 <0>         0.0617
     59 H25         1.3770   -7.9692   -1.9565 H         1 <0>         0.0770
     60 H26         2.6305  -10.7206   -1.6496 H         1 <0>         0.0664
     61 H27         3.4439   -9.4113   -2.5399 H         1 <0>         0.0638
     62 H28         4.2640   -9.2290   -0.3080 H         1 <0>         0.0647
     63 H29         3.0226   -7.9603   -0.4400 H         1 <0>         0.0685
     64 H30         1.8124  -10.4887    0.3472 H         1 <0>         0.0780
     65 H31         3.1300  -10.0566    1.4630 H         1 <0>         0.0680
     66 H32         2.1344   -7.9566    1.9962 H         1 <0>         0.0693
     67 H33         0.7815   -9.1134    1.9996 H         1 <0>         0.0676
     68 H34        -4.1522   -6.2131    1.8996 H         1 <0>         0.4277
@<TRIPOS>BOND
     1    1    6 ar
     2    1    2 ar
     3    1   36 1
     4    2    3 ar
     5    2   37 1
     6    3    4 ar
     7    3   32 1
     8    4    5 ar
     9    4   31 1
    10    5    6 ar
    11    5   38 1
    12    6    7 1
    13    7    8 2
    14    7    9 am
    15    9   14 1
    16    9   10 1
    17   10   11 1
    18   10   39 1
    19   10   40 1
    20   11   12 1
    21   11   13 1
    22   11   20 1
    23   13   19 1
    24   13   14 1
    25   13   15 1
    26   14   41 1
    27   14   42 1
    28   15   16 1
    29   15   43 1
    30   15   44 1
    31   16   17 1
    32   16   45 1
    33   16   46 1
    34   17   18 1
    35   17   47 1
    36   17   68 1
    37   18   19 1
    38   18   48 1
    39   18   49 1
    40   19   50 1
    41   19   51 1
    42   20   21 2
    43   20   22 am
    44   22   23 1
    45   22   52 1
    46   23   30 1
    47   23   24 1
    48   23   53 1
    49   24   25 1
    50   24   54 1
    51   24   55 1
    52   25   26 1
    53   25   56 1
    54   25   57 1
    55   26   27 1
    56   26   58 1
    57   26   59 1
    58   27   28 1
    59   27   60 1
    60   27   61 1
    61   28   29 1
    62   28   62 1
    63   28   63 1
    64   29   30 1
    65   29   64 1
    66   29   65 1
    67   30   66 1
    68   30   67 1
    69   32   33 1
    70   32   34 1
    71   32   35 1
@<TRIPOS>MOLECULE
ZINC59170753
   33    35     0     0     0
SMALL
USER_CHARGES

@<TRIPOS>ATOM
      1 C1          0.6355    2.1434    0.2972 C.ar      1 <0>        -0.0707
      2 C2          1.9088    2.6746    0.4033 C.ar      1 <0>        -0.0999
      3 C3          3.0111    1.8470    0.3546 C.ar      1 <0>        -0.0808
      4 C4          2.8397    0.4693    0.1981 C.ar      1 <0>         0.0126
      5 C5          1.5510   -0.0599    0.0921 C.ar      1 <0>        -0.0787
      6 C6          0.4580    0.7798    0.1419 C.ar      1 <0>        -0.1008
      7 N1          3.9280   -0.3571    0.1486 N.pl3     1 <0>        -0.4261
      8 C7          3.9348   -1.4776    0.8376 C.2       1 <0>         0.5061
      9 C8          5.0326   -2.4547    0.6906 C.2       1 <0>        -0.2172
     10 C9          5.2947   -3.2793    1.7771 C.2       1 <0>         0.1298
     11 C10         4.4616   -3.1066    2.9694 C.ar      1 <0>        -0.1566
     12 C11         4.8220   -3.6976    4.1865 C.ar      1 <0>         0.0118
     13 C12         4.0230   -3.5173    5.2939 C.ar      1 <0>        -0.1015
     14 C13         2.8664   -2.7543    5.2085 C.ar      1 <0>         0.0191
     15 C14         2.4980   -2.1659    4.0147 C.ar      1 <0>        -0.0974
     16 C15         3.2868   -2.3364    2.8858 C.ar      1 <0>         0.1662
     17 O1          2.9362   -1.7686    1.7096 O.3       1 <0>        -0.1950
     18 Br1         0.9191   -1.1296    3.9181 Br        1 <0>         0.0308
     19 Br2         4.5040   -4.3143    6.9399 Br        1 <0>         0.0219
     20 C16         5.8136   -2.5507   -0.5522 C.2       1 <0>         0.3860
     21 S1          5.3615   -1.6269   -1.9208 S.2       1 <0>        -0.5041
     22 N2          6.8851   -3.3660   -0.6134 N.pl3     1 <0>        -0.7326
     23 H1         -0.2242    2.7957    0.3401 H         1 <0>         0.1446
     24 H2          2.0398    3.7398    0.5243 H         1 <0>         0.1487
     25 H3          4.0044    2.2630    0.4369 H         1 <0>         0.1435
     26 H4          1.4111   -1.1240   -0.0291 H         1 <0>         0.1374
     27 H5         -0.5387    0.3721    0.0600 H         1 <0>         0.1463
     28 H6          6.0817   -4.0182    1.7442 H         1 <0>         0.1914
     29 H7          5.7211   -4.2918    4.2566 H         1 <0>         0.1751
     30 H8          2.2489   -2.6192    6.0842 H         1 <0>         0.1775
     31 H9          7.1412   -3.8894    0.1621 H         1 <0>         0.4092
     32 H10         7.4001   -3.4293   -1.4329 H         1 <0>         0.4435
     33 H11         4.6949   -0.1171   -0.3946 H         1 <0>         0.4596
@<TRIPOS>BOND
     1    1    6 ar
     2    1    2 ar
     3    1   23 1
     4    2    3 ar
     5    2   24 1
     6    3    4 ar
     7    3   25 1
     8    4    5 ar
     9    4    7 1
    10    5    6 ar
    11    5   26 1
    12    6   27 1
    13    7    8 2
    14    7   33 1
    15    8   17 1
    16    8    9 1
    17    9   10 2
    18    9   20 1
    19   10   11 1
    20   10   28 1
    21   11   16 ar
    22   11   12 ar
    23   12   13 ar
    24   12   29 1
    25   13   14 ar
    26   13   19 1
    27   14   15 ar
    28   14   30 1
    29   15   16 ar
    30   15   18 1
    31   16   17 1
    32   20   21 2
    33   20   22 1
    34   22   31 1
    35   22   32 1
@<TRIPOS>MOLECULE
ZINC04666683
   35    36     0     0     0
SMALL
USER_CHARGES
6-(carboxymethylcarbamoylmethylcarbamoyl)bicyclo[2.2.1]hept-2-ene-5-carboxylic acid
@<TRIPOS>ATOM
      1 C1         -0.8787   -2.4359   -1.7246 C.3       1 <0>        -0.1118
      2 C2         -1.0277   -2.3316   -0.1626 C.3       1 <0>        -0.0569
      3 H1         -0.2186   -2.7519    0.4348 H         1 <0>         0.0947
      4 C3         -2.4135   -2.9590    0.0318 C.2       1 <0>        -0.1824
      5 C4         -3.1455   -2.6509   -1.0455 C.2       1 <0>        -0.1613
      6 C5         -2.2916   -1.8000   -1.9934 C.3       1 <0>        -0.0565
      7 H2         -2.6189   -1.7574   -3.0323 H         1 <0>         0.0954
      8 C6         -2.1349   -0.4383   -1.2445 C.3       1 <0>        -0.1166
      9 H3         -3.1084   -0.0544   -0.9397 H         1 <0>         0.0736
     10 C7         -1.2793   -0.7981   -0.0052 C.3       1 <0>        -0.0874
     11 H4         -1.8271   -0.5921    0.9144 H         1 <0>         0.0822
     12 C8          0.0244   -0.0426   -0.0240 C.2       1 <0>         0.5352
     13 O1          0.9944   -0.5205   -0.5732 O.2       1 <0>        -0.5443
     14 N1          0.1126    1.1642    0.5696 N.am      1 <0>        -0.6990
     15 C9          1.3800    1.8987    0.5513 C.3       1 <0>         0.1091
     16 C10         1.2122    3.2083    1.2779 C.2       1 <0>         0.5067
     17 O2          0.1395    3.4994    1.7631 O.2       1 <0>        -0.5507
     18 N2          2.2542    4.0559    1.3884 N.am      1 <0>        -0.7054
     19 C11         2.0911    5.3290    2.0946 C.3       1 <0>         0.0786
     20 C12         3.3949    6.0846    2.0759 C.2       1 <0>         0.4615
     21 O3          4.3612    5.6084    1.5287 O.co2     1 <0>        -0.6347
     22 C13        -1.4166    0.5636   -2.1114 C.2       1 <0>         0.4630
     23 O4         -0.7375    0.1851   -3.0363 O.co2     1 <0>        -0.6254
     24 H5         -0.0643   -1.8214   -2.1083 H         1 <0>         0.1089
     25 H6         -0.8127   -3.4677   -2.0698 H         1 <0>         0.0567
     26 H7         -2.7262   -3.5490    0.8806 H         1 <0>         0.1236
     27 H8         -4.1699   -2.9487   -1.2138 H         1 <0>         0.1181
     28 H9         -0.6643    1.5482    1.0054 H         1 <0>         0.4088
     29 H10         2.1506    1.3059    1.0442 H         1 <0>         0.0885
     30 H11         1.6739    2.0907   -0.4806 H         1 <0>         0.0955
     31 H12         3.1121    3.8231    1.0003 H         1 <0>         0.4084
     32 H13         1.3205    5.9218    1.6018 H         1 <0>         0.0730
     33 H14         1.7973    5.1370    3.1266 H         1 <0>         0.0710
     34 O5          3.4827    7.2865    2.6670 O.co2     1 <0>        -0.7645
     35 O6         -1.5312    1.8763   -1.8560 O.co2     1 <0>        -0.7555
@<TRIPOS>BOND
     1    1    6 1
     2    1    2 1
     3    1   24 1
     4    1   25 1
     5    2    3 1
     6    2   10 1
     7    2    4 1
     8    4    5 2
     9    4   26 1
    10    5    6 1
    11    5   27 1
    12    6    7 1
    13    6    8 1
    14    8    9 1
    15    8   10 1
    16    8   22 1
    17   10   11 1
    18   10   12 1
    19   12   13 2
    20   12   14 am
    21   14   15 1
    22   14   28 1
    23   15   16 1
    24   15   29 1
    25   15   30 1
    26   16   17 2
    27   16   18 am
    28   18   19 1
    29   18   31 1
    30   19   20 1
    31   19   32 1
    32   19   33 1
    33   20   21 2
    34   20   34 1
    35   22   23 2
    36   22   35 1
@<TRIPOS>MOLECULE
ZINC24466670
   37    38     0     0     0
SMALL
USER_CHARGES
1-[[3-hydroxy-2-methyl-5-(phosphonooxymethyl)-4-pyridyl]methylamino]cyclopropane-1-carboxylic acid
@<TRIPOS>ATOM
      1 C1         -1.1213   -1.7840    0.4477 C.3       1 <0>        -0.0573
      2 C2          0.0060   -0.7889    0.3472 C.ar      1 <0>        -0.0270
      3 C3          1.3147   -1.2408    0.2566 C.ar      1 <0>         0.2569
      4 C4          2.3454   -0.3113    0.1641 C.ar      1 <0>        -0.2858
      5 C5          2.0196    1.0356    0.1665 C.ar      1 <0>        -0.0533
      6 C6          0.6921    1.4087    0.2604 C.ar      1 <0>        -0.0114
      7 N1         -0.2615    0.5018    0.3466 N.ar      1 <0>        -0.4397
      8 C7          3.1002    2.0815    0.0680 C.3       1 <0>         0.1751
      9 O1          2.5081    3.3818    0.0912 O.3       1 <0>        -0.7580
     10 P1          3.3695    4.7392    0.0042 P.3       1 <0>         2.2256
     11 O2          4.3927    4.7436    1.0735 O.2       1 <0>        -1.1000
     12 O3          4.0933    4.8243   -1.4315 O.3       1 <0>        -1.1203
     13 O4          2.3941    6.0066    0.1894 O.3       1 <0>        -0.9321
     14 C8          3.7811   -0.7581    0.0637 C.3       1 <0>         0.0879
     15 N2          4.1442   -0.9254   -1.3497 N.4       1 <0>        -0.4782
     16 C9          5.4906   -1.4975   -1.4833 C.3       1 <0>        -0.1444
     17 C10         5.6750   -2.6453   -2.4779 C.3       1 <0>        -0.1076
     18 C11         5.7058   -2.9240   -0.9738 C.3       1 <0>        -0.1146
     19 C12         6.6295   -0.5232   -1.3256 C.2       1 <0>         0.4881
     20 O5          7.7675   -0.9263   -1.2792 O.co2     1 <0>        -0.6095
     21 O6          6.3794    0.7927   -1.2366 O.co2     1 <0>        -0.7115
     22 O7          1.5857   -2.5726    0.2582 O.3       1 <0>        -0.7178
     23 H1         -2.0795   -1.2474    0.5107 H         1 <0>         0.0485
     24 H2         -0.9866   -2.4009    1.3484 H         1 <0>         0.0530
     25 H3         -1.1206   -2.4300   -0.4427 H         1 <0>         0.0524
     26 H4          0.4589    2.3811    0.2623 H         1 <0>         0.1343
     27 H5          3.6550    1.9480   -0.8724 H         1 <0>         0.0659
     28 H6          3.7899    1.9774    0.9186 H         1 <0>         0.0670
     29 H7          2.8056    7.0263    0.1593 H         1 <0>         0.4419
     30 H8          3.9046   -1.7162    0.5899 H         1 <0>         0.1139
     31 H9          4.4337   -0.0009    0.5228 H         1 <0>         0.1156
     32 H10         3.4243   -1.6004   -1.8358 H         1 <0>         0.4227
     33 H11         4.7833   -2.7232   -3.1174 H         1 <0>         0.1059
     34 H12         6.5587   -2.4503   -3.1032 H         1 <0>         0.1228
     35 H13         6.6150   -2.9593   -0.3556 H         1 <0>         0.1262
     36 H14         4.8397   -3.2322   -0.3698 H         1 <0>         0.1178
     37 H15         4.1254    0.0533   -1.8515 H         1 <0>         0.4469
@<TRIPOS>BOND
     1    1   23 1
     2    1   24 1
     3    1   25 1
     4    1    2 1
     5    2    3 ar
     6    2    7 ar
     7    3   22 1
     8    3    4 ar
     9    4    5 ar
    10    4   14 1
    11    5    6 ar
    12    5    8 1
    13    6    7 ar
    14    6   26 1
    15    8    9 1
    16    8   27 1
    17    8   28 1
    18    9   10 1
    19   10   11 2
    20   10   12 1
    21   10   13 1
    22   13   29 1
    23   14   15 1
    24   14   30 1
    25   14   31 1
    26   15   16 1
    27   15   32 1
    28   15   37 1
    29   16   18 1
    30   16   17 1
    31   16   19 1
    32   17   18 1
    33   17   33 1
    34   17   34 1
    35   18   35 1
    36   18   36 1
    37   19   20 2
    38   19   21 1
@<TRIPOS>MOLECULE
ZINC38194896
   35    35     0     0     0
SMALL
USER_CHARGES

@<TRIPOS>ATOM
      1 C1         -0.0188    1.5369    0.0105 C.3       1 <0>        -0.5798
      2 S1          1.7676    1.9825   -0.0042 S.o2      1 <0>         2.3682
      3 O1          1.9980    2.9565   -1.0129 O.2       1 <0>        -0.9385
      4 O2          2.1975    2.2337    1.3267 O.2       1 <0>        -0.9268
      5 C2          2.4406    0.3567   -0.5647 C.3       1 <0>        -0.5772
      6 C3          1.4078   -0.5947    0.1017 C.3       1 <0>         0.1328
      7 H1          1.6680   -0.7311    1.1514 H         1 <0>         0.1199
      8 C4          0.0021   -0.0041    0.0020 C.3       1 <0>         0.1361
      9 H2         -0.4593   -0.3546   -0.9212 H         1 <0>         0.1183
     10 N1         -0.7928   -0.4906    1.1324 N.am      1 <0>        -0.7245
     11 C5         -2.1237   -0.6554    0.9989 C.2       1 <0>         0.5553
     12 O3         -2.6644   -0.4006   -0.0590 O.2       1 <0>        -0.5465
     13 C6         -2.9261   -1.1465    2.1399 C.2       1 <0>        -0.2147
     14 C7         -4.2520   -1.3107    2.0069 C.2       1 <0>        -0.0924
     15 C8         -5.0519   -1.8004    3.1446 C.2       1 <0>         0.5048
     16 O4         -4.5078   -2.0568    4.2092 O.co2     1 <0>        -0.6806
     17 O5         -6.2595   -1.9500    3.0235 O.co2     1 <0>        -0.6852
     18 N2          1.4360   -1.8926   -0.5771 N.am      1 <0>        -0.7157
     19 C9          2.3193   -2.8351   -0.1926 C.2       1 <0>         0.5547
     20 O6          3.0923   -2.6084    0.7171 O.2       1 <0>        -0.5457
     21 C10         2.3477   -4.1453   -0.8777 C.2       1 <0>        -0.2139
     22 C11         3.2276   -5.0843   -0.4947 C.2       1 <0>        -0.0924
     23 C12         3.2560   -6.3905   -1.1779 C.2       1 <0>         0.5049
     24 O7          2.4780   -6.6188   -2.0933 O.co2     1 <0>        -0.6812
     25 O8          4.0574   -7.2457   -0.8290 O.co2     1 <0>        -0.6848
     26 H3         -0.5010    1.9102    0.9140 H         1 <0>         0.1488
     27 H4         -0.5181    1.9198   -0.8796 H         1 <0>         0.1496
     28 H5          2.4173    0.2702   -1.6510 H         1 <0>         0.1461
     29 H6          3.4450    0.1873   -0.1766 H         1 <0>         0.1502
     30 H7         -0.3612   -0.6940    1.9769 H         1 <0>         0.4080
     31 H8         -2.4455   -1.3730    3.0802 H         1 <0>         0.1349
     32 H9         -4.7325   -1.0842    1.0667 H         1 <0>         0.1124
     33 H10         0.8189   -2.0736   -1.3032 H         1 <0>         0.4078
     34 H11         1.6606   -4.3469   -1.6863 H         1 <0>         0.1345
     35 H12         3.9147   -4.8827    0.3138 H         1 <0>         0.1128
@<TRIPOS>BOND
     1    1    8 1
     2    1    2 1
     3    1   26 1
     4    1   27 1
     5    2    3 2
     6    2    4 2
     7    2    5 1
     8    5    6 1
     9    5   28 1
    10    5   29 1
    11    6    7 1
    12    6    8 1
    13    6   18 1
    14    8    9 1
    15    8   10 1
    16   10   11 am
    17   10   30 1
    18   11   12 2
    19   11   13 1
    20   13   14 2
    21   13   31 1
    22   14   15 1
    23   14   32 1
    24   15   16 2
    25   15   17 1
    26   18   19 am
    27   18   33 1
    28   19   20 2
    29   19   21 1
    30   21   22 2
    31   21   34 1
    32   22   23 1
    33   22   35 1
    34   23   24 2
    35   23   25 1
@<TRIPOS>MOLECULE
ZINC44929951
   23    24     0     0     0
SMALL
USER_CHARGES

@<TRIPOS>ATOM
      1 C1         -0.0126    1.0758    0.0080 C.2       1 <0>         0.0634
      2 C2          1.0907    1.9097    0.0019 C.2       1 <0>        -0.2015
      3 C3          0.6072    3.2389    0.0137 C.2       1 <0>        -0.4410
      4 N1         -0.6958    3.1934    0.0259 N.2       1 <0>        -0.2202
      5 H1         -2.0226    1.5432    0.0185 H         1 <0>         0.4321
      6 N2         -1.1041    1.8551    0.0167 N.pl3     1 <0>        -0.4636
      7 S1          1.5927    4.6996    0.0126 S.o2      1 <0>         2.7286
      8 O1          1.7115    5.1102    1.3678 O.2       1 <0>        -0.9604
      9 O2          2.7240    4.4256   -0.8024 O.2       1 <0>        -0.9034
     10 N3          0.7236    5.8760   -0.7639 N.pl3     1 <0>        -1.1087
     11 C4         -0.5293    6.3650   -0.1830 C.3       1 <0>         0.2361
     12 C5         -0.9268    7.6527   -0.8575 C.2       1 <0>         0.0497
     13 N4         -0.5797    8.8773   -0.4895 N.2       1 <0>        -0.3733
     14 N5         -1.1203    9.7019   -1.3203 N.2       1 <0>        -0.2024
     15 N6         -1.7925    9.0366   -2.1940 N.2       1 <0>        -0.2030
     16 N7         -1.6861    7.7778   -1.9363 N.2       1 <0>        -0.3761
     17 C6          2.5005    1.4930   -0.0131 C.2       1 <0>         0.5355
     18 O3          2.7868    0.3035   -0.0220 O.co2     1 <0>        -0.6995
     19 O4          3.3875    2.3358   -0.0166 O.co2     1 <0>        -0.6506
     20 H2          0.0021   -0.0041    0.0020 H         1 <0>         0.1855
     21 H3          1.0440    6.2413   -1.6034 H         1 <0>         0.4156
     22 H4         -1.3124    5.6212   -0.3296 H         1 <0>         0.0770
     23 H5         -0.3907    6.5414    0.8837 H         1 <0>         0.0802
@<TRIPOS>BOND
     1    1   20 1
     2    1    2 2
     3    1    6 1
     4    2   17 1
     5    2    3 1
     6    3    7 1
     7    3    4 2
     8    4    6 1
     9    5    6 1
    10    7    8 2
    11    7    9 2
    12    7   10 1
    13   10   11 1
    14   10   21 1
    15   11   12 1
    16   11   22 1
    17   11   23 1
    18   12   16 2
    19   12   13 1
    20   13   14 1
    21   14   15 2
    22   15   16 1
    23   17   18 2
    24   17   19 1
@<TRIPOS>MOLECULE
ZINC37041797
   29    29     0     0     0
SMALL
USER_CHARGES

@<TRIPOS>ATOM
      1 C1         -0.0168    1.3844    0.0097 C.ar      1 <0>        -0.1650
      2 C2          1.1700    2.0907    0.0021 C.ar      1 <0>        -0.0949
      3 C3          2.3804    1.4137   -0.0131 C.ar      1 <0>        -0.0146
      4 C4          2.4002    0.0268   -0.0207 C.ar      1 <0>        -0.1423
      5 C5          1.2143   -0.6811   -0.0132 C.ar      1 <0>        -0.2295
      6 C6          0.0021   -0.0041    0.0020 C.ar      1 <0>         0.2694
      7 N1         -1.1999   -0.7206    0.0101 N.2       1 <0>        -1.1201
      8 S1         -1.1769   -2.3764    0.0010 S.o2      1 <0>         2.5780
      9 O1         -0.5814   -2.7239   -1.2415 O.2       1 <0>        -1.0355
     10 O2         -0.5568   -2.7372    1.2276 O.2       1 <0>        -1.0355
     11 C7         -2.9233   -2.8670    0.0157 C.3       1 <0>        -0.6604
     12 C8         -3.0227   -4.3707    0.0086 C.2       1 <0>         0.5183
     13 O3         -2.0094   -5.0486   -0.0051 O.co2     1 <0>        -0.6867
     14 O4         -4.1165   -4.9093    0.0166 O.co2     1 <0>        -0.6956
     15 O5          3.5486    2.1100   -0.0209 O.3       1 <0>        -0.3041
     16 C9          4.7577    1.3485   -0.0365 C.3       1 <0>         0.0447
     17 C10         5.9399    2.2831   -0.0434 C.2       1 <0>         0.5218
     18 O6          5.7643    3.4831   -0.0356 O.2       1 <0>        -0.5254
     19 N2          7.1923    1.7854   -0.0581 N.am      1 <0>        -0.8570
     20 H1         -0.9591    1.9117    0.0260 H         1 <0>         0.1161
     21 H2          1.1556    3.1706    0.0077 H         1 <0>         0.1088
     22 H3          3.3431   -0.4996   -0.0329 H         1 <0>         0.1020
     23 H4          1.2299   -1.7610   -0.0195 H         1 <0>         0.1074
     24 H5         -3.4031   -2.4753    0.9126 H         1 <0>         0.1137
     25 H6         -3.4208   -2.4658   -0.8672 H         1 <0>         0.1137
     26 H7          4.8000    0.7157    0.8499 H         1 <0>         0.0844
     27 H8          4.7827    0.7246   -0.9300 H         1 <0>         0.0844
     28 H9          7.3328    0.8256   -0.0643 H         1 <0>         0.4023
     29 H10         7.9533    2.3870   -0.0624 H         1 <0>         0.4013
@<TRIPOS>BOND
     1    1    6 ar
     2    1    2 ar
     3    1   20 1
     4    2    3 ar
     5    2   21 1
     6    3    4 ar
     7    3   15 1
     8    4    5 ar
     9    4   22 1
    10    5    6 ar
    11    5   23 1
    12    6    7 1
    13    7    8 1
    14    8    9 2
    15    8   10 2
    16    8   11 1
    17   11   12 1
    18   11   24 1
    19   11   25 1
    20   12   13 2
    21   12   14 1
    22   15   16 1
    23   16   17 1
    24   16   26 1
    25   16   27 1
    26   17   18 2
    27   17   19 am
    28   19   28 1
    29   19   29 1
@<TRIPOS>MOLECULE
ZINC05450981
   32    33     0     0     0
SMALL
USER_CHARGES
8-methoxycarbonyl-7-methyl-8-azabicyclo[2.2.2]oct-2-ene-5,6-dicarboxylic acid
@<TRIPOS>ATOM
      1 C1          1.6151   -0.4505   -2.2976 C.3       1 <0>        -0.2137
      2 C2          2.1436    0.9830   -2.3798 C.3       1 <0>         0.1872
      3 H1          2.6418    1.1419   -3.3362 H         1 <0>         0.0545
      4 C3          3.1265    1.2495   -1.2228 C.3       1 <0>        -0.0537
      5 H2          4.0042    0.6076   -1.2975 H         1 <0>         0.0913
      6 C4          3.5150    2.7199   -1.2905 C.2       1 <0>        -0.1510
      7 C5          2.4884    3.5629   -1.2137 C.2       1 <0>        -0.1821
      8 C6          1.1352    2.8724   -1.0752 C.3       1 <0>         0.1898
      9 H3          0.3132    3.5874   -1.0417 H         1 <0>         0.0967
     10 N1          1.0323    1.9423   -2.2240 N.am      1 <0>        -0.5528
     11 C7         -0.0126    1.9702   -3.0749 C.2       1 <0>         0.6865
     12 O1         -0.0594    1.1900   -4.0052 O.2       1 <0>        -0.6035
     13 O2         -1.0044    2.8625   -2.8939 O.3       1 <0>        -0.3608
     14 C8         -2.0979    2.8352   -3.8488 C.3       1 <0>         0.0648
     15 C9          1.1998    2.0105    0.1954 C.3       1 <0>        -0.1423
     16 H4          1.3400    2.6544    1.0637 H         1 <0>         0.0560
     17 C10         2.3705    1.0311    0.0949 C.3       1 <0>        -0.1030
     18 H5          3.0494    1.1917    0.9323 H         1 <0>         0.0582
     19 C11         1.8466   -0.3811    0.1426 C.2       1 <0>         0.4672
     20 O3          0.6730   -0.5968   -0.0471 O.co2     1 <0>        -0.5229
     21 C12        -0.0869    1.2403    0.3449 C.2       1 <0>         0.5271
     22 O4         -0.7965    1.0572   -0.6158 O.co2     1 <0>        -0.6515
     23 H6          0.6872   -0.4635   -1.7259 H         1 <0>         0.1495
     24 H7          1.4276   -0.8268   -3.3032 H         1 <0>         0.0253
     25 H8          2.3542   -1.0825   -1.8051 H         1 <0>         0.0740
     26 H9          4.5379    3.0510   -1.3928 H         1 <0>         0.1130
     27 H10         2.6025    4.6364   -1.2460 H         1 <0>         0.1157
     28 H11        -1.7111    3.0263   -4.8498 H         1 <0>         0.0449
     29 H12        -2.5767    1.8562   -3.8251 H         1 <0>         0.0567
     30 H13        -2.8269    3.6026   -3.5885 H         1 <0>         0.0852
     31 O5          2.6837   -1.3993    0.3959 O.co2     1 <0>        -0.7995
     32 O6         -0.4474    0.7624    1.5463 O.co2     1 <0>        -0.8069
@<TRIPOS>BOND
     1    1    2 1
     2    1   23 1
     3    1   24 1
     4    1   25 1
     5    2    3 1
     6    2   10 1
     7    2    4 1
     8    4    5 1
     9    4   17 1
    10    4    6 1
    11    6    7 2
    12    6   26 1
    13    7    8 1
    14    7   27 1
    15    8    9 1
    16    8   10 1
    17    8   15 1
    18   10   11 am
    19   11   12 2
    20   11   13 1
    21   13   14 1
    22   14   28 1
    23   14   29 1
    24   14   30 1
    25   15   16 1
    26   15   17 1
    27   15   21 1
    28   17   18 1
    29   17   19 1
    30   19   20 2
    31   19   31 1
    32   21   22 2
    33   21   32 1
@<TRIPOS>MOLECULE
ZINC19487228
   31    32     0     0     0
SMALL
USER_CHARGES
(3S)-1-(2,6-dihydroxypyridine-4-carbonyl)piperidine-3-carboxylic acid
@<TRIPOS>ATOM
      1 C1         -1.7432    2.4866   -3.8044 C.2       1 <0>        -0.3354
      2 C2         -1.9491    1.2111   -3.2725 C.2       1 <0>         0.0268
      3 C3         -2.9411    0.4087   -3.8420 C.2       1 <0>        -0.3066
      4 C4         -3.6877    0.9082   -4.8994 C.2       1 <0>         0.4683
      5 N1         -3.4624    2.1216   -5.3748 N.am      1 <0>        -0.5828
      6 C5         -2.5291    2.9091   -4.8667 C.2       1 <0>         0.4650
      7 O1         -2.3383    4.1460   -5.3908 O.2       1 <0>        -0.6943
      8 O2         -4.6613    0.1421   -5.4528 O.3       1 <0>        -0.6913
      9 C6         -1.1366    0.7220   -2.1340 C.2       1 <0>         0.5595
     10 O3         -0.5997   -0.3663   -2.1939 O.2       1 <0>        -0.5397
     11 N2         -0.9931    1.4845   -1.0319 N.am      1 <0>        -0.6004
     12 C7         -1.5667    2.8360   -0.9767 C.3       1 <0>         0.0897
     13 C8         -2.4461    2.9477    0.2728 C.3       1 <0>        -0.1347
     14 C9         -1.6251    2.5626    1.5055 C.3       1 <0>        -0.0938
     15 C10        -1.1515    1.1126    1.3764 C.3       1 <0>        -0.1409
     16 H1         -2.0190    0.4416    1.2916 H         1 <0>         0.0721
     17 C11        -0.2604    0.9797    0.1373 C.3       1 <0>         0.1357
     18 C12        -0.3675    0.7252    2.6037 C.2       1 <0>         0.4700
     19 O4         -0.2045    1.5255    3.4941 O.co2     1 <0>        -0.6423
     20 O5          0.1498   -0.5091    2.7076 O.co2     1 <0>        -0.7694
     21 H2         -1.0372    3.0809   -3.4193 H         1 <0>         0.1217
     22 H3         -3.1164   -0.5137   -3.4979 H         1 <0>         0.1200
     23 H4         -4.0595    2.5021   -6.2167 H         1 <0>         0.4222
     24 H5         -0.7553    3.5771   -0.9292 H         1 <0>         0.0646
     25 H6         -2.1734    3.0138   -1.8769 H         1 <0>         0.1072
     26 H7         -2.8044    3.9825    0.3776 H         1 <0>         0.0679
     27 H8         -3.3070    2.2696    0.1772 H         1 <0>         0.0624
     28 H9         -0.7515    3.2261    1.5862 H         1 <0>         0.0607
     29 H10        -2.2473    2.6644    2.4069 H         1 <0>         0.0604
     30 H11         0.0003   -0.0771   -0.0216 H         1 <0>         0.0975
     31 H12         0.6590    1.5674    0.2757 H         1 <0>         0.0598
@<TRIPOS>BOND
     1    1    2 2
     2    1   21 1
     3    1    6 1
     4    2    3 1
     5    2    9 1
     6    3    4 2
     7    3   22 1
     8    4    5 1
     9    4    8 1
    10    5   23 1
    11    5    6 am
    12    6    7 2
    13    9   10 2
    14    9   11 am
    15   11   17 1
    16   11   12 1
    17   12   13 1
    18   12   24 1
    19   12   25 1
    20   13   14 1
    21   13   26 1
    22   13   27 1
    23   14   15 1
    24   14   28 1
    25   14   29 1
    26   15   16 1
    27   15   17 1
    28   15   18 1
    29   17   30 1
    30   17   31 1
    31   18   19 2
    32   18   20 1
@<TRIPOS>MOLECULE
ZINC36900708
   30    32     0     0     0
SMALL
USER_CHARGES

@<TRIPOS>ATOM
      1 C1         -0.0157    1.3042    0.0092 C.2       1 <0>         0.1026
      2 C2          1.3069    1.7591   -0.0010 C.2       1 <0>        -0.7740
      3 C3          2.1194    0.6771   -0.0145 C.2       1 <0>         0.1521
      4 N1          1.3385   -0.4236   -0.0130 N.pl3     1 <0>        -0.3218
      5 N2          0.0021   -0.0041    0.0020 N.2       1 <0>        -0.2621
      6 C4          1.8060   -1.8119   -0.0253 C.3       1 <0>         0.0491
      7 C5          1.2055   -2.5546    1.1404 C.2       1 <0>         0.4892
      8 O1          0.4564   -1.9776    1.9101 O.co2     1 <0>        -0.6577
      9 O2          1.4686   -3.7324    1.3137 O.co2     1 <0>        -0.7007
     10 S1          1.8238    3.4436    0.0023 S.o2      1 <0>         2.7025
     11 O3          3.1281    3.4693   -0.5612 O.2       1 <0>        -1.0231
     12 O4          0.7471    4.1999   -0.5344 O.2       1 <0>        -1.0176
     13 N3          1.9829    3.9039    1.5850 N.2       1 <0>        -1.0536
     14 C6          2.3814    5.1913    1.8938 C.2       1 <0>         0.4903
     15 N4          2.6585    6.1453    1.0389 N.2       1 <0>        -0.4411
     16 N5          2.9940    7.2083    1.6813 N.2       1 <0>        -0.2577
     17 C7          2.9450    6.9774    2.9604 C.2       1 <0>         0.0759
     18 O5          2.5513    5.6997    3.1283 O.3       1 <0>        -0.2500
     19 C8          3.2646    7.9618    4.0557 C.3       1 <0>        -0.0420
     20 C9          3.4905    9.4200    3.6513 C.3       1 <0>        -0.1570
     21 C10         4.6752    8.5538    4.0840 C.3       1 <0>        -0.1683
     22 H1         -0.8989    1.9254    0.0250 H         1 <0>         0.1856
     23 H2          3.1992    0.6917   -0.0251 H         1 <0>         0.1790
     24 H3          1.5012   -2.2897   -0.9565 H         1 <0>         0.0841
     25 H4          2.8930   -1.8300    0.0534 H         1 <0>         0.0946
     26 H5          2.7782    7.7743    5.0130 H         1 <0>         0.1210
     27 H6          3.4079    9.6673    2.5929 H         1 <0>         0.1074
     28 H7          3.1526   10.1921    4.3424 H         1 <0>         0.0976
     29 H8          5.1166    8.7562    5.0599 H         1 <0>         0.0974
     30 H9          5.3719    8.2313    3.3103 H         1 <0>         0.0982
@<TRIPOS>BOND
     1    1    5 2
     2    1    2 1
     3    1   22 1
     4    2    3 2
     5    2   10 1
     6    3    4 1
     7    3   23 1
     8    4    5 1
     9    4    6 1
    10    6    7 1
    11    6   24 1
    12    6   25 1
    13    7    8 2
    14    7    9 1
    15   10   11 2
    16   10   12 2
    17   10   13 1
    18   13   14 1
    19   14   18 1
    20   14   15 2
    21   15   16 1
    22   16   17 2
    23   17   18 1
    24   17   19 1
    25   19   21 1
    26   19   20 1
    27   19   26 1
    28   20   21 1
    29   20   27 1
    30   20   28 1
    31   21   29 1
    32   21   30 1
@<TRIPOS>MOLECULE
ZINC37732011
   25    26     0     0     0
SMALL
USER_CHARGES

@<TRIPOS>ATOM
      1 C1         -0.0178    1.4608    0.0101 C.3       1 <0>         0.1294
      2 N1          0.0021   -0.0041    0.0020 N.pl3     1 <0>        -0.4007
      3 C2          0.0079   -0.7985   -1.1014 C.2       1 <0>        -0.0817
      4 C3          0.0273   -2.0875   -0.6775 C.2       1 <0>         0.1564
      5 C4          0.0335   -2.0792    0.7247 C.2       1 <0>        -0.0487
      6 N2          0.0246   -0.8348    1.1296 N.2       1 <0>        -0.3081
      7 N3          0.0391   -3.2305   -1.4997 N.2       1 <0>        -1.0499
      8 S1          0.0627   -4.7399   -0.8190 S.o2      1 <0>         2.6270
      9 O1          1.3129   -4.8668   -0.1555 O.2       1 <0>        -1.0702
     10 O2         -1.1776   -4.9006   -0.1443 O.2       1 <0>        -0.9907
     11 C5          0.0726   -5.9067   -2.1393 C.2       1 <0>        -0.4068
     12 C6         -0.9390   -6.1097   -3.0601 C.2       1 <0>        -0.1699
     13 C7         -0.5072   -7.1358   -3.9327 C.2       1 <0>         0.0539
     14 N4          0.6813   -7.5142   -3.5524 N.2       1 <0>        -0.3137
     15 N5          1.0649   -6.7575   -2.4397 N.pl3     1 <0>        -0.4337
     16 C8         -2.2220   -5.3943   -3.1203 C.2       1 <0>         0.5328
     17 O3         -3.0364   -5.6709   -3.9906 O.co2     1 <0>        -0.7149
     18 O4         -2.4753   -4.5223   -2.3002 O.co2     1 <0>        -0.6273
     19 H1          1.0048    1.8381    0.0023 H         1 <0>         0.0488
     20 H2         -0.5450    1.8219   -0.8730 H         1 <0>         0.0706
     21 H3         -0.5280    1.8123    0.9069 H         1 <0>         0.0675
     22 H4         -0.0018   -0.4645   -2.1284 H         1 <0>         0.1548
     23 H5          0.0479   -2.9511    1.3619 H         1 <0>         0.1565
     24 H6         -1.0641   -7.5359   -4.7670 H         1 <0>         0.1852
     25 H7          1.9067   -6.8363   -1.9642 H         1 <0>         0.4335
@<TRIPOS>BOND
     1    1    2 1
     2    1   19 1
     3    1   20 1
     4    1   21 1
     5    2    6 1
     6    2    3 1
     7    3    4 2
     8    3   22 1
     9    4    5 1
    10    4    7 1
    11    5    6 2
    12    5   23 1
    13    7    8 1
    14    8    9 2
    15    8   10 2
    16    8   11 1
    17   11   12 2
    18   11   15 1
    19   12   16 1
    20   12   13 1
    21   13   24 1
    22   13   14 2
    23   14   15 1
    24   15   25 1
    25   16   17 2
    26   16   18 1
@<TRIPOS>MOLECULE
ZINC59372129
   36    39     0     0     0
SMALL
USER_CHARGES

@<TRIPOS>ATOM
      1 C1         -0.0167    1.3814    0.0096 C.ar      1 <0>        -0.0387
      2 C2          1.1698    2.1115    0.0022 C.ar      1 <0>        -0.0387
      3 C3          2.3980    1.4700   -0.0129 C.ar      1 <0>        -0.0989
      4 C4          2.4391    0.0562   -0.0209 C.ar      1 <0>        -0.0160
      5 C5          3.6823   -0.6179   -0.0372 C.ar      1 <0>        -0.0989
      6 C6          3.7011   -2.0034   -0.0458 C.ar      1 <0>        -0.0387
      7 C7          2.5146   -2.7334   -0.0389 C.ar      1 <0>        -0.0387
      8 C8          1.2865   -2.0920   -0.0228 C.ar      1 <0>        -0.0988
      9 C9          1.2454   -0.6782   -0.0130 C.ar      1 <0>        -0.0160
     10 C10         0.0021   -0.0041    0.0020 C.ar      1 <0>        -0.0989
     11 C11        -1.2310   -0.8138    0.0090 C.2       1 <0>         0.5723
     12 O1         -2.3152   -0.2646    0.0219 O.2       1 <0>        -0.4866
     13 N1         -1.1609   -2.1586    0.0006 N.am      1 <0>        -0.5263
     14 C12         0.0078   -2.8276   -0.0155 C.2       1 <0>         0.5724
     15 O2          0.0091   -4.0430   -0.0232 O.2       1 <0>        -0.4865
     16 C13        -2.4087   -2.9263    0.0079 C.3       1 <0>         0.0257
     17 C14        -2.8498   -3.1814   -1.4103 C.2       1 <0>         0.4929
     18 O3         -2.1837   -2.7609   -2.3409 O.co2     1 <0>        -0.6817
     19 O4         -3.8728   -3.8082   -1.6271 O.co2     1 <0>        -0.6943
     20 C15         4.9155    0.1918   -0.0451 C.2       1 <0>         0.5724
     21 O5          5.9996   -0.3573   -0.0595 O.2       1 <0>        -0.4865
     22 N2          4.8453    1.5367   -0.0367 N.am      1 <0>        -0.5264
     23 C16         3.6766    2.2056   -0.0216 C.2       1 <0>         0.5724
     24 O6          3.6753    3.4210   -0.0155 O.2       1 <0>        -0.4866
     25 C17         6.0931    2.3043   -0.0445 C.3       1 <0>         0.0257
     26 C18         6.5071    2.5756   -1.4678 C.2       1 <0>         0.4929
     27 O7          5.8234    2.1657   -2.3903 O.co2     1 <0>        -0.6817
     28 O8          7.5259    3.2050   -1.6969 O.co2     1 <0>        -0.6944
     29 H1         -0.9629    1.9018    0.0260 H         1 <0>         0.1563
     30 H2          1.1319    3.1908    0.0080 H         1 <0>         0.1563
     31 H3          4.6474   -2.5238   -0.0583 H         1 <0>         0.1563
     32 H4          2.5525   -3.8127   -0.0464 H         1 <0>         0.1563
     33 H5         -2.2470   -3.8776    0.5148 H         1 <0>         0.0953
     34 H6         -3.1796   -2.3616    0.5322 H         1 <0>         0.0953
     35 H7          5.9412    3.2498    0.4763 H         1 <0>         0.0953
     36 H8          6.8738    1.7338    0.4586 H         1 <0>         0.0953
@<TRIPOS>BOND
     1    1   10 ar
     2    1    2 ar
     3    1   29 1
     4    2    3 ar
     5    2   30 1
     6    3   23 1
     7    3    4 ar
     8    4    9 ar
     9    4    5 ar
    10    5    6 ar
    11    5   20 1
    12    6    7 ar
    13    6   31 1
    14    7    8 ar
    15    7   32 1
    16    8   14 1
    17    8    9 ar
    18    9   10 ar
    19   10   11 1
    20   11   12 2
    21   11   13 am
    22   13   14 am
    23   13   16 1
    24   14   15 2
    25   16   17 1
    26   16   33 1
    27   16   34 1
    28   17   18 2
    29   17   19 1
    30   20   21 2
    31   20   22 am
    32   22   23 am
    33   22   25 1
    34   23   24 2
    35   25   26 1
    36   25   35 1
    37   25   36 1
    38   26   27 2
    39   26   28 1
@<TRIPOS>MOLECULE
ZINC04411154
   41    44     0     0     0
SMALL
USER_CHARGES
dihydroxy-dioxo-BLAHdisulfonic acid
@<TRIPOS>ATOM
      1 C1          7.9445    6.0082    0.4037 C.ar      1 <0>        -0.1129
      2 C2          7.1142    6.9467   -0.1783 C.ar      1 <0>        -0.1006
      3 C3          5.7757    6.6608   -0.3982 C.ar      1 <0>        -0.0721
      4 C4          5.2654    5.4209   -0.0317 C.ar      1 <0>        -0.0973
      5 C5          6.1111    4.4659    0.5601 C.ar      1 <0>        -0.1242
      6 C6          7.4504    4.7672    0.7749 C.ar      1 <0>        -0.0688
      7 C7          5.5519    3.1552    0.9413 C.2       1 <0>         0.4332
      8 O1          6.2697    2.3196    1.4535 O.2       1 <0>        -0.4349
      9 C8          4.1217    2.8501    0.7052 C.2       1 <0>        -0.0990
     10 C9          3.3102    3.7609    0.1515 C.2       1 <0>        -0.0957
     11 C10         3.8466    5.0848   -0.2511 C.2       1 <0>         0.3526
     12 O2          3.1086    5.9006   -0.7665 O.2       1 <0>        -0.3331
     13 C11         1.8381    3.5298   -0.0789 C.3       1 <0>        -0.3460
     14 C12         1.4532    2.0600    0.0827 C.3       1 <0>        -0.3527
     15 C13         2.1144    1.5436    1.3588 C.3       1 <0>         0.0639
     16 H1          1.9157    2.2382    2.1749 H         1 <0>         0.1016
     17 C14         3.6215    1.4928    1.1065 C.3       1 <0>        -0.0406
     18 H2          3.8161    0.8036    0.2847 H         1 <0>         0.1120
     19 C15         4.2965    0.9715    2.3454 C.2       1 <0>        -0.1175
     20 C16         3.6705   -0.0041    3.0187 C.2       1 <0>        -0.1934
     21 C17         2.3877   -0.5175    2.5133 C.2       1 <0>         0.1223
     22 N1          1.6477    0.2131    1.7323 N.2       1 <0>        -0.4154
     23 O3          1.9184    1.3101   -1.0413 O.3       1 <0>        -0.5046
     24 S1         -0.3492    1.9080    0.2193 S.o2      1 <0>         2.6289
     25 O4         -0.9511    2.0536   -1.0597 O.2       1 <0>        -0.9688
     26 O5         -0.8206    2.6568    1.3313 O.2       1 <0>        -1.0473
     27 O6          1.0937    4.3100    0.8588 O.3       1 <0>        -0.4924
     28 S2          1.4131    4.0687   -1.7580 S.o2      1 <0>         2.5761
     29 O7          1.4459    5.4870   -1.8398 O.2       1 <0>        -1.0249
     30 O8          2.0967    3.2718   -2.7155 O.2       1 <0>        -1.0218
     31 H3          8.9855    6.2428    0.5703 H         1 <0>         0.1325
     32 H4          7.5107    7.9099   -0.4635 H         1 <0>         0.1345
     33 H5          5.1316    7.3988   -0.8532 H         1 <0>         0.1474
     34 H6          8.1041    4.0372    1.2290 H         1 <0>         0.1400
     35 H7          5.2452    1.3661    2.6781 H         1 <0>         0.1464
     36 H8          4.1030   -0.4088    3.9217 H         1 <0>         0.1231
     37 H9          2.0587   -1.5076    2.7923 H         1 <0>         0.1558
     38 H10         1.7175    0.3654   -0.9942 H         1 <0>         0.3777
     39 H11         1.2820    5.2577    0.8192 H         1 <0>         0.3755
     40 O9         -0.5914    0.4542    0.5993 O.3       1 <0>        -1.0749
     41 O10        -0.0550    3.7039   -1.9261 O.3       1 <0>        -0.9846
@<TRIPOS>BOND
     1    1    6 ar
     2    1    2 ar
     3    1   31 1
     4    2    3 ar
     5    2   32 1
     6    3    4 ar
     7    3   33 1
     8    4   11 1
     9    4    5 ar
    10    5    6 ar
    11    5    7 1
    12    6   34 1
    13    7    8 2
    14    7    9 1
    15    9   17 1
    16    9   10 2
    17   10   11 1
    18   10   13 1
    19   11   12 2
    20   13   14 1
    21   13   27 1
    22   13   28 1
    23   14   15 1
    24   14   23 1
    25   14   24 1
    26   15   16 1
    27   15   22 1
    28   15   17 1
    29   17   18 1
    30   17   19 1
    31   19   20 2
    32   19   35 1
    33   20   21 1
    34   20   36 1
    35   21   22 2
    36   21   37 1
    37   23   38 1
    38   24   25 2
    39   24   26 2
    40   24   40 1
    41   27   39 1
    42   28   29 2
    43   28   30 2
    44   28   41 1
@<TRIPOS>MOLECULE
ZINC20458632
   30    30     0     0     0
SMALL
USER_CHARGES
4-[(4-nitrophenoxy)sulfonylamino]butanoic acid
@<TRIPOS>ATOM
      1 C1          0.0021   -0.0041    0.0020 C.ar      1 <0>        -0.0402
      2 C2         -0.0167    1.3772    0.0096 C.ar      1 <0>        -0.1276
      3 C3          1.1759    2.0860    0.0020 C.ar      1 <0>         0.2004
      4 C4          2.3846    1.4052   -0.0122 C.ar      1 <0>        -0.1202
      5 C5          2.3980    0.0239   -0.0203 C.ar      1 <0>        -0.0326
      6 C6          1.2080   -0.6802   -0.0131 C.ar      1 <0>        -0.0692
      7 N1          1.2252   -2.1601   -0.0212 N.pl3     1 <0>         0.0411
      8 O1          0.1776   -2.7814   -0.0146 O.2       1 <0>        -0.1789
      9 O2          2.2870   -2.7568   -0.0346 O.3       1 <0>        -0.1704
     10 O3          1.1601    3.4449    0.0099 O.3       1 <0>        -0.7216
     11 S1          1.1665    4.0560    1.4039 S.o2      1 <0>         2.5921
     12 O4          0.9389    5.4487    1.2378 O.2       1 <0>        -1.0489
     13 O5          0.3294    3.2380    2.2097 O.2       1 <0>        -1.0276
     14 N2          2.7024    3.8954    2.0018 N.2       1 <0>        -1.0838
     15 C7          3.8147    4.6036    1.3635 C.3       1 <0>         0.1252
     16 C8          5.0263    4.5977    2.2978 C.3       1 <0>        -0.0670
     17 C9          6.1880    5.3372    1.6312 C.3       1 <0>        -0.1577
     18 C10         7.3814    5.3314    2.5514 C.2       1 <0>         0.4612
     19 O6          7.3101    4.7912    3.6298 O.co2     1 <0>        -0.6404
     20 O7          8.5236    5.9264    2.1730 O.co2     1 <0>        -0.7943
     21 H1         -0.9261   -0.5563    0.0076 H         1 <0>         0.1543
     22 H2         -0.9589    1.9049    0.0170 H         1 <0>         0.1497
     23 H3          3.3144    1.9547   -0.0178 H         1 <0>         0.1657
     24 H4          3.3387   -0.5065   -0.0317 H         1 <0>         0.1592
     25 H5          4.0763    4.1012    0.4205 H         1 <0>         0.0007
     26 H6          3.5171    5.6420    1.1554 H         1 <0>         0.0072
     27 H7          4.7646    5.1001    3.2407 H         1 <0>         0.0539
     28 H8          5.3238    3.5593    2.5059 H         1 <0>         0.0559
     29 H9          6.4496    4.8348    0.6883 H         1 <0>         0.0567
     30 H10         5.8905    6.3756    1.4231 H         1 <0>         0.0572
@<TRIPOS>BOND
     1    1    6 ar
     2    1    2 ar
     3    1   21 1
     4    2    3 ar
     5    2   22 1
     6    3    4 ar
     7    3   10 1
     8    4    5 ar
     9    4   23 1
    10    5    6 ar
    11    5   24 1
    12    6    7 1
    13    7    8 2
    14    7    9 1
    15   10   11 1
    16   11   12 2
    17   11   13 2
    18   11   14 1
    19   14   15 1
    20   15   16 1
    21   15   25 1
    22   15   26 1
    23   16   17 1
    24   16   27 1
    25   16   28 1
    26   17   18 1
    27   17   29 1
    28   17   30 1
    29   18   19 2
    30   18   20 1
@<TRIPOS>MOLECULE
ZINC37047504
   23    23     0     0     0
SMALL
USER_CHARGES

@<TRIPOS>ATOM
      1 C1         -0.0167    1.3775    0.0096 C.ar      1 <0>        -0.0935
      2 C2          1.1761    2.0872    0.0020 C.ar      1 <0>         0.2627
      3 C3          2.3879    1.4056   -0.0132 C.ar      1 <0>         0.0171
      4 C4          2.4013    0.0227   -0.0207 C.ar      1 <0>        -0.1305
      5 C5          1.2093   -0.6818   -0.0136 C.ar      1 <0>         0.0527
      6 C6          0.0021   -0.0041    0.0020 C.ar      1 <0>        -0.0432
      7 N1         -1.2701   -0.7606    0.0106 N.pl3     1 <0>         0.0491
      8 O1         -2.3248   -0.1696    0.0242 O.2       1 <0>        -0.1764
      9 O2         -1.2546   -1.9694    0.0040 O.3       1 <0>        -0.1746
     10 F1          1.2243   -2.0327   -0.0215 F         1 <0>        -0.1285
     11 F2          3.5508    2.0933   -0.0211 F         1 <0>        -0.1079
     12 N2          1.1591    3.4870    0.0093 N.2       1 <0>        -1.0977
     13 S1          2.5830    4.3324    0.0002 S.o2      1 <0>         2.5935
     14 O3          3.2140    3.9929    1.2273 O.2       1 <0>        -1.0196
     15 O4          3.1909    4.0054   -1.2418 O.2       1 <0>        -1.0196
     16 C7          2.0889    6.0778    0.0136 C.3       1 <0>        -0.6668
     17 C8          3.3192    6.9482    0.0065 C.2       1 <0>         0.5193
     18 O5          4.4266    6.4383   -0.0064 O.co2     1 <0>        -0.6836
     19 O6          3.2070    8.1622    0.0137 O.co2     1 <0>        -0.6915
     20 H1         -0.9590    1.9049    0.0259 H         1 <0>         0.1580
     21 H2          3.3419   -0.5079   -0.0326 H         1 <0>         0.1487
     22 H3          1.4873    6.2919   -0.8697 H         1 <0>         0.1161
     23 H4          1.5039    6.2829    0.9102 H         1 <0>         0.1161
@<TRIPOS>BOND
     1    1    6 ar
     2    1    2 ar
     3    1   20 1
     4    2    3 ar
     5    2   12 1
     6    3    4 ar
     7    3   11 1
     8    4    5 ar
     9    4   21 1
    10    5    6 ar
    11    5   10 1
    12    6    7 1
    13    7    8 2
    14    7    9 1
    15   12   13 1
    16   13   14 2
    17   13   15 2
    18   13   16 1
    19   16   17 1
    20   16   22 1
    21   16   23 1
    22   17   18 2
    23   17   19 1
@<TRIPOS>MOLECULE
ZINC38635778
   40    42     0     0     0
SMALL
USER_CHARGES

@<TRIPOS>ATOM
      1 C1          0.0113    1.3771   -0.3256 C.ar      1 <0>        -0.1745
      2 C2          1.2000    2.0791   -0.3491 C.ar      1 <0>        -0.0244
      3 C3          2.4058    1.4022   -0.3191 C.ar      1 <0>        -0.6771
      4 C4          2.4260    0.0202   -0.2654 C.ar      1 <0>        -0.0188
      5 C5          1.2416   -0.6889   -0.2412 C.ar      1 <0>        -0.1224
      6 C6          0.0275   -0.0121   -0.2712 C.ar      1 <0>         0.1706
      7 N1         -1.1706   -0.7246   -0.2468 N.pl3     1 <0>        -0.4320
      8 N2         -1.1564   -2.0128   -0.3127 N.2       1 <0>        -0.0278
      9 C7         -2.2915   -2.6820   -0.4002 C.2       1 <0>        -0.1279
     10 C8         -2.3135   -4.1513   -0.2934 C.ar      1 <0>         0.1516
     11 C9         -3.5499   -4.8252   -0.3929 C.ar      1 <0>        -0.1604
     12 C10        -3.5793   -6.2222   -0.2923 C.ar      1 <0>         0.0374
     13 C11        -2.4084   -6.9178   -0.0986 C.ar      1 <0>        -0.7013
     14 C12        -1.1946   -6.2508   -0.0014 C.ar      1 <0>         0.0815
     15 C13        -1.1402   -4.8770   -0.0976 C.ar      1 <0>        -0.6860
     16 S1          0.4062   -4.0418    0.0280 S.o2      1 <0>         2.7010
     17 O1          0.3089   -3.1417    1.1665 O.2       1 <0>        -1.0500
     18 O2          1.4228   -5.0629    0.2280 O.2       1 <0>        -1.0715
     19 O3          0.5992   -3.3202   -1.2202 O.3       1 <0>        -1.0433
     20 S2         -2.4495   -8.6748    0.0279 S.o2      1 <0>         2.7035
     21 O4         -1.3462   -9.0619    0.8933 O.2       1 <0>        -1.0599
     22 O5         -3.7392   -9.0269    0.6014 O.2       1 <0>        -1.0729
     23 O6         -2.2928   -9.1992   -1.3198 O.3       1 <0>        -1.0668
     24 C14        -4.7786   -4.0660   -0.5988 C.2       1 <0>         0.0245
     25 C15        -4.7664   -2.7204   -0.6981 C.2       1 <0>        -0.2622
     26 C16        -3.5684   -1.9801   -0.6010 C.2       1 <0>         0.4154
     27 O7         -3.5914   -0.7627   -0.6888 O.2       1 <0>        -0.5280
     28 S3          3.9200    2.3027   -0.3499 S.o2      1 <0>         2.7067
     29 O8          4.9014    1.4562   -1.0104 O.2       1 <0>        -1.0664
     30 O9          3.6686    3.5264   -1.0950 O.2       1 <0>        -1.0752
     31 O10         4.2789    2.5729    1.0337 O.3       1 <0>        -1.0708
     32 H1         -0.9298    1.9065   -0.3448 H         1 <0>         0.1220
     33 H2          1.1882    3.1582   -0.3913 H         1 <0>         0.1329
     34 H3          3.3695   -0.5048   -0.2429 H         1 <0>         0.1367
     35 H4          1.2582   -1.7680   -0.1996 H         1 <0>         0.1710
     36 H5         -2.0148   -0.2516   -0.1803 H         1 <0>         0.4080
     37 H6         -4.5180   -6.7511   -0.3662 H         1 <0>         0.1388
     38 H7         -0.2853   -6.8133    0.1511 H         1 <0>         0.1519
     39 H8         -5.7185   -4.5926   -0.6737 H         1 <0>         0.1330
     40 H9         -5.6980   -2.1957   -0.8504 H         1 <0>         0.1333
@<TRIPOS>BOND
     1    1    6 ar
     2    1    2 ar
     3    1   32 1
     4    2    3 ar
     5    2   33 1
     6    3    4 ar
     7    3   28 1
     8    4    5 ar
     9    4   34 1
    10    5    6 ar
    11    5   35 1
    12    6    7 1
    13    7    8 1
    14    7   36 1
    15    8    9 2
    16    9   26 1
    17    9   10 1
    18   10   15 ar
    19   10   11 ar
    20   11   12 ar
    21   11   24 1
    22   12   13 ar
    23   12   37 1
    24   13   14 ar
    25   13   20 1
    26   14   15 ar
    27   14   38 1
    28   15   16 1
    29   16   17 2
    30   16   18 2
    31   16   19 1
    32   20   21 2
    33   20   22 2
    34   20   23 1
    35   24   25 2
    36   24   39 1
    37   25   26 1
    38   25   40 1
    39   26   27 2
    40   28   29 2
    41   28   30 2
    42   28   31 1
@<TRIPOS>MOLECULE
ZINC57314363
   32    32     0     0     0
SMALL
USER_CHARGES

@<TRIPOS>ATOM
      1 C1         -0.0242    1.3753   -0.0115 C.ar      1 <0>        -0.1302
      2 C2          1.1741    2.0905   -0.0084 C.ar      1 <0>        -0.1126
      3 C3          2.3922    1.4075   -0.0167 C.ar      1 <0>        -0.1224
      4 C4          2.4105    0.0202   -0.0284 C.ar      1 <0>         0.1327
      5 C5          1.2199   -0.6926   -0.0319 C.ar      1 <0>        -0.1117
      6 C6         -0.0004   -0.0167   -0.0228 C.ar      1 <0>         0.0901
      7 N1         -1.1777   -0.7241   -0.0254 N.2       1 <0>        -0.5136
      8 C7         -2.1360   -0.3853    0.7704 C.2       1 <0>         0.2152
      9 C8         -3.4278   -1.1615    0.7676 C.3       1 <0>        -0.1582
     10 C9         -3.7276   -1.6429    2.1638 C.2       1 <0>         0.5020
     11 O1         -2.9632   -1.3802    3.0765 O.co2     1 <0>        -0.6871
     12 O2         -4.7346   -2.2952    2.3806 O.co2     1 <0>        -0.7095
     13 N2          3.6312   -0.6611   -0.0371 N.am      1 <0>        -0.6677
     14 C10         3.7561   -1.8286    0.6246 C.2       1 <0>         0.5378
     15 O3          2.7869   -2.3311    1.1586 O.2       1 <0>        -0.5253
     16 C11         5.0717   -2.4978    0.7007 C.2       1 <0>        -0.1987
     17 C12         5.1961   -3.6614    1.3601 C.2       1 <0>        -0.1088
     18 C13         6.5081   -4.3287    1.4360 C.2       1 <0>         0.5101
     19 O4          7.4833   -3.8231    0.8987 O.co2     1 <0>        -0.6881
     20 O5          6.6214   -5.3881    2.0364 O.co2     1 <0>        -0.6902
     21 C14         1.1541    3.5661    0.0030 C.2       1 <0>         0.5285
     22 O6          0.0869    4.1631    0.0098 O.co2     1 <0>        -0.6911
     23 O7          2.2048    4.1918    0.0057 O.co2     1 <0>        -0.6949
     24 H1         -0.9679    1.9004   -0.0006 H         1 <0>         0.1233
     25 H2          3.3205    1.9595   -0.0143 H         1 <0>         0.1263
     26 H3          1.2380   -1.7724   -0.0417 H         1 <0>         0.1366
     27 H4         -4.2375   -0.5180    0.4234 H         1 <0>         0.0825
     28 H5         -2.0120    0.4543    1.4382 H         1 <0>         0.0938
     29 H6         -3.3355   -2.0180    0.0998 H         1 <0>         0.0782
     30 H7          4.3883   -0.2935   -0.5193 H         1 <0>         0.4069
     31 H8          5.9329   -2.0513    0.2262 H         1 <0>         0.1321
     32 H9          4.3348   -4.1079    1.8347 H         1 <0>         0.1139
@<TRIPOS>BOND
     1    1    6 ar
     2    1    2 ar
     3    1   24 1
     4    2    3 ar
     5    2   21 1
     6    3    4 ar
     7    3   25 1
     8    4    5 ar
     9    4   13 1
    10    5    6 ar
    11    5   26 1
    12    6    7 1
    13    7    8 2
    14    8   28 1
    15    8    9 1
    16    9   10 1
    17    9   27 1
    18    9   29 1
    19   10   11 2
    20   10   12 1
    21   13   14 am
    22   13   30 1
    23   14   15 2
    24   14   16 1
    25   16   17 2
    26   16   31 1
    27   17   18 1
    28   17   32 1
    29   18   19 2
    30   18   20 1
    31   21   22 2
    32   21   23 1
@<TRIPOS>MOLECULE
ZINC01704197
   13    13     0     0     0
SMALL
USER_CHARGES
N-(3-thioxo-2H-1,2,4-triazol-4-yl)formamide
@<TRIPOS>ATOM
      1 C1          1.2073    1.8170    0.0003 C.2       1 <0>         0.2760
      2 N1         -0.0169    1.3975    0.0097 N.2       1 <0>        -0.2703
      3 N2          0.0021   -0.0041    0.0020 N.pl3     1 <0>        -0.4627
      4 H1         -0.7712   -0.5896    0.0063 H         1 <0>         0.4761
      5 C2          1.2958   -0.3876   -0.0124 C.2       1 <0>         0.4614
      6 S1          1.8753   -1.9985   -0.0274 S.2       1 <0>        -0.5598
      7 N3          2.0479    0.7312   -0.0136 N.pl3     1 <0>        -0.3089
      8 N4          3.4480    0.7782   -0.0267 N.am      1 <0>        -0.4993
      9 C3          4.0825    1.9673   -0.0264 C.2       1 <0>         0.5069
     10 O1          3.4413    2.9967   -0.0147 O.2       1 <0>        -0.5351
     11 H2          1.5171    2.8516    0.0023 H         1 <0>         0.2653
     12 H3          3.9608   -0.0451   -0.0360 H         1 <0>         0.4508
     13 H4          5.1618    2.0035   -0.0365 H         1 <0>         0.1995
@<TRIPOS>BOND
     1    1    7 1
     2    1    2 2
     3    1   11 1
     4    2    3 1
     5    3    4 1
     6    3    5 1
     7    5    6 2
     8    5    7 1
     9    7    8 1
    10    8    9 am
    11    8   12 1
    12    9   10 2
    13    9   13 1
@<TRIPOS>MOLECULE
ZINC28531856
   20    21     0     0     0
SMALL
USER_CHARGES
5-cyclopropyl-4-methyl-1,2,4-triazol-3-amine
@<TRIPOS>ATOM
      1 C1         -1.4124    2.4143   -3.8126 C.3       1 <0>         0.0718
      2 N1         -0.9548    3.3388   -2.7723 N.pl3     1 <0>        -0.5117
      3 C2         -0.8343    3.0821   -1.4346 C.2       1 <0>         0.1619
      4 N2         -0.4011    4.1726   -0.8682 N.2       1 <0>        -0.2793
      5 N3         -0.2322    5.0909   -1.7514 N.2       1 <0>        -0.3582
      6 C3         -0.5604    4.6346   -2.9372 C.2       1 <0>         0.4501
      7 N4         -0.5150    5.3363   -4.1313 N.pl3     1 <0>        -0.8556
      8 C4         -1.1502    1.7810   -0.7428 C.3       1 <0>        -0.1656
      9 C5         -0.0127    1.0858    0.0080 C.3       1 <0>        -0.1035
     10 C6         -1.1356    1.7728    0.7878 C.3       1 <0>        -0.1002
     11 H1         -1.6576    1.4431   -3.3580 H         1 <0>         0.0972
     12 H2         -0.6159    2.2791   -4.5591 H         1 <0>         0.0810
     13 H3         -2.3072    2.8266   -4.3017 H         1 <0>         0.0800
     14 H4         -0.1776    6.3832   -4.1415 H         1 <0>         0.4485
     15 H5         -0.8163    4.8464   -5.0689 H         1 <0>         0.4251
     16 H6         -1.8696    1.4881   -1.5217 H         1 <0>         0.1224
     17 H7          0.0083    0.0200   -0.2635 H         1 <0>         0.1077
     18 H8          0.9455    1.5525   -0.2643 H         1 <0>         0.1023
     19 H9         -1.1059    2.8076    1.1597 H         1 <0>         0.1167
     20 H10        -2.0430    1.2751    1.1605 H         1 <0>         0.1095
@<TRIPOS>BOND
     1    1    2 1
     2    1   11 1
     3    1   12 1
     4    1   13 1
     5    2    6 1
     6    2    3 1
     7    3    4 2
     8    3    8 1
     9    4    5 1
    10    5    6 2
    11    6    7 1
    12    7   14 1
    13    7   15 1
    14    8   10 1
    15    8    9 1
    16    8   16 1
    17    9   10 1
    18    9   17 1
    19    9   18 1
    20   10   19 1
    21   10   20 1
@<TRIPOS>MOLECULE
ZINC39063064
   22    22     0     0     0
SMALL
USER_CHARGES

@<TRIPOS>ATOM
      1 C1         -0.0187    1.5272    0.0104 C.3       1 <0>        -0.1115
      2 C2          1.4189    2.0514   -0.0005 C.3       1 <0>        -0.0123
      3 N1          2.1304    1.5637    1.1871 N.4       1 <0>        -0.5008
      4 C3          2.2168    0.0989    1.1494 C.3       1 <0>        -0.0158
      5 C4          0.8100   -0.5004    1.2046 C.3       1 <0>        -0.1107
      6 C5          0.0021   -0.0041    0.0020 C.3       1 <0>        -0.2145
      7 C6          0.6427   -0.4924   -1.2717 C.2       1 <0>         0.3778
      8 O1          1.6384   -1.1739   -1.2240 O.2       1 <0>        -0.4753
      9 C7         -1.4082   -0.5277    0.0916 C.2       1 <0>         0.5125
     10 O2         -1.6963   -1.5945   -0.4236 O.co2     1 <0>        -0.6677
     11 O3         -2.2611    0.1155    0.6793 O.co2     1 <0>        -0.6668
     12 H1         -0.5277    1.8794    0.9076 H         1 <0>         0.1058
     13 H2         -0.5447    1.8889   -0.8730 H         1 <0>         0.1113
     14 H3          1.9269    1.6989   -0.8981 H         1 <0>         0.1193
     15 H4          1.4077    3.1413    0.0053 H         1 <0>         0.1327
     16 H5          3.0606    1.9542    1.2046 H         1 <0>         0.4234
     17 H6          2.7078   -0.2120    0.2272 H         1 <0>         0.1397
     18 H7          2.7948   -0.2526    2.0041 H         1 <0>         0.1278
     19 H8          0.8763   -1.5880    1.1746 H         1 <0>         0.1108
     20 H9          0.3181   -0.1904    2.1265 H         1 <0>         0.0899
     21 H10         0.2112   -0.2328   -2.2271 H         1 <0>         0.0986
     22 H11         1.6324    1.8489    2.0170 H         1 <0>         0.4258
@<TRIPOS>BOND
     1    1    6 1
     2    1    2 1
     3    1   12 1
     4    1   13 1
     5    2    3 1
     6    2   14 1
     7    2   15 1
     8    3    4 1
     9    3   16 1
    10    3   22 1
    11    4    5 1
    12    4   17 1
    13    4   18 1
    14    5    6 1
    15    5   19 1
    16    5   20 1
    17    6    7 1
    18    6    9 1
    19    7    8 2
    20    7   21 1
    21    9   10 2
    22    9   11 1
@<TRIPOS>MOLECULE
ZINC39135546
   18    18     0     0     0
SMALL
USER_CHARGES

@<TRIPOS>ATOM
      1 C1         -0.0184    1.5070    0.0103 C.3       1 <0>        -0.0557
      2 C2          1.4690    1.9256   -0.0016 C.3       1 <0>        -0.0988
      3 C3          2.1406    0.7009   -0.6626 C.3       1 <0>         0.1892
      4 C4          1.2113   -0.4555   -0.3749 C.2       1 <0>         0.2295
      5 C5          0.0021   -0.0041    0.0020 C.2       1 <0>        -0.1797
      6 C6         -1.1097   -0.8378    0.3477 C.1       1 <0>         0.2703
      7 N1         -1.9916   -1.4993    0.6219 N.1       1 <0>        -0.4297
      8 N2          1.5528   -1.7784   -0.4835 N.pl3     1 <0>        -0.8348
      9 C7          2.2662    0.9076   -2.1146 C.1       1 <0>         0.2049
     10 N3          2.3631    1.0671   -3.2351 N.1       1 <0>        -0.3626
     11 C8          3.4626    0.4566   -0.0631 C.1       1 <0>         0.1993
     12 N4          4.4828    0.2680    0.3996 N.1       1 <0>        -0.3638
     13 H1         -0.5083    1.8744    0.9120 H         1 <0>         0.0952
     14 H2         -0.5254    1.8840   -0.8779 H         1 <0>         0.0906
     15 H3          1.6164    2.8225   -0.6032 H         1 <0>         0.1101
     16 H4          1.8402    2.0733    1.0125 H         1 <0>         0.1121
     17 H5          2.4478   -2.0270   -0.7630 H         1 <0>         0.4079
     18 H6          0.8994   -2.4662   -0.2810 H         1 <0>         0.4157
@<TRIPOS>BOND
     1    1    5 1
     2    1    2 1
     3    1   13 1
     4    1   14 1
     5    2    3 1
     6    2   15 1
     7    2   16 1
     8    3    4 1
     9    3    9 1
    10    3   11 1
    11    4    5 2
    12    4    8 1
    13    5    6 1
    14    6    7 3
    15    8   17 1
    16    8   18 1
    17    9   10 3
    18   11   12 3
@<TRIPOS>MOLECULE
ZINC32625204
   19    20     0     0     0
SMALL
USER_CHARGES

@<TRIPOS>ATOM
      1 C1         -0.0189    1.5389    0.0105 C.3       1 <0>        -0.1414
      2 C2          1.4877    1.9090   -0.0019 C.3       1 <0>        -0.1292
      3 C3          2.0771    0.7912   -0.8979 C.3       1 <0>         0.1593
      4 H1          1.9393    1.0367   -1.9509 H         1 <0>         0.1453
      5 N1          1.3058   -0.4202   -0.5467 N.4       1 <0>        -0.5111
      6 C4          0.0021   -0.0041    0.0020 C.3       1 <0>        -0.0058
      7 C5          3.5395    0.5914   -0.5937 C.2       1 <0>        -0.0061
      8 N2          4.0469   -0.0178    0.4629 N.2       1 <0>        -0.3817
      9 N3          5.3313    0.0186    0.3557 N.2       1 <0>        -0.1585
     10 N4          5.6416    0.6311   -0.7339 N.2       1 <0>        -0.1616
     11 N5          4.5583    0.9870   -1.3358 N.2       1 <0>        -0.3487
     12 H2         -0.5001    1.9129    0.9142 H         1 <0>         0.1085
     13 H3         -0.5172    1.9225   -0.8798 H         1 <0>         0.0972
     14 H4          1.6450    2.8909   -0.4483 H         1 <0>         0.1138
     15 H5          1.9085    1.8666    1.0027 H         1 <0>         0.0991
     16 H6          1.1629   -0.9829   -1.3720 H         1 <0>         0.4251
     17 H7         -0.1103   -0.3820    1.0182 H         1 <0>         0.1288
     18 H8         -0.8031   -0.3824   -0.6278 H         1 <0>         0.1292
     19 H9          1.8099   -0.9552    0.1445 H         1 <0>         0.4376
@<TRIPOS>BOND
     1    1    6 1
     2    1    2 1
     3    1   12 1
     4    1   13 1
     5    2    3 1
     6    2   14 1
     7    2   15 1
     8    3    4 1
     9    3    5 1
    10    3    7 1
    11    5    6 1
    12    5   16 1
    13    5   19 1
    14    6   17 1
    15    6   18 1
    16    7   11 2
    17    7    8 1
    18    8    9 2
    19    9   10 1
    20   10   11 1
@<TRIPOS>MOLECULE
ZINC08624214
   60    63     0     0     0
SMALL
USER_CHARGES
2-[1-[[4-[3,5-dimethyl-1-(2-pyridyl)pyrazol-4-yl]-1-cyclopent-2-enyl]carbamoylmethyl]cyclopentyl]acetic acid
@<TRIPOS>ATOM
      1 C1          0.7358    2.7179   -3.1945 C.3       1 <0>        -0.0824
      2 C2          1.5107    3.7848   -2.4650 C.2       1 <0>         0.1104
      3 C3          1.4705    4.0290   -1.0875 C.2       1 <0>        -0.2123
      4 C4          2.2968    5.0670   -0.8233 C.2       1 <0>         0.1132
      5 N1          2.8501    5.4616   -1.9995 N.pl3     1 <0>        -0.3323
      6 N2          2.3353    4.6408   -3.0115 N.2       1 <0>        -0.2900
      7 C5          3.7657    6.5043   -2.1705 C.ar      1 <0>         0.3773
      8 C6          4.6303    6.4895   -3.2582 C.ar      1 <0>        -0.1639
      9 C7          5.5286    7.5303   -3.4183 C.ar      1 <0>        -0.0526
     10 C8          5.5373    8.5483   -2.4749 C.ar      1 <0>        -0.1877
     11 C9          4.6527    8.4955   -1.4154 C.ar      1 <0>         0.1302
     12 N3          3.8045    7.4930   -1.2921 N.ar      1 <0>        -0.5029
     13 C10         2.5587    5.6736    0.5311 C.3       1 <0>        -0.1052
     14 C11         0.6466    3.2729   -0.0772 C.3       1 <0>         0.0108
     15 H1          0.7977    3.6857    0.9202 H         1 <0>         0.0898
     16 C12        -0.8515    3.3181   -0.4578 C.3       1 <0>        -0.1241
     17 C13        -1.3180    1.9065   -0.0385 C.3       1 <0>         0.1659
     18 H2         -2.0559    1.5241   -0.7438 H         1 <0>         0.0924
     19 C14        -0.0671    1.0598   -0.0746 C.2       1 <0>        -0.1615
     20 C15         1.0043    1.8050   -0.0990 C.2       1 <0>        -0.1466
     21 N4         -1.8740    1.9381    1.3166 N.am      1 <0>        -0.7297
     22 C16        -2.7197    0.9696    1.7207 C.2       1 <0>         0.5181
     23 O1         -3.0204    0.0720    0.9626 O.2       1 <0>        -0.5313
     24 C17        -3.2915    1.0020    3.1146 C.3       1 <0>        -0.1342
     25 C18        -4.3046   -0.1330    3.2768 C.3       1 <0>        -0.0185
     26 C19        -5.3907   -0.0318    2.1859 C.3       1 <0>        -0.1065
     27 C20        -6.6941   -0.4573    2.9081 C.3       1 <0>        -0.1266
     28 C21        -6.5261    0.1683    4.3150 C.3       1 <0>        -0.1282
     29 C22        -5.0260   -0.0063    4.6300 C.3       1 <0>        -0.0963
     30 C23        -3.5949   -1.4854    3.1858 C.3       1 <0>        -0.1521
     31 C24        -2.6594   -1.6415    4.3569 C.2       1 <0>         0.4613
     32 O2         -2.5043   -0.7279    5.1323 O.co2     1 <0>        -0.6400
     33 H3         -0.2271    3.1197   -3.5099 H         1 <0>         0.0808
     34 H4          1.2988    2.3943   -4.0699 H         1 <0>         0.0737
     35 H5          0.5751    1.8679   -2.5313 H         1 <0>         0.0900
     36 H6          4.5989    5.6790   -3.9712 H         1 <0>         0.1451
     37 H7          6.2100    7.5478   -4.2561 H         1 <0>         0.1434
     38 H8          6.2288    9.3727   -2.5679 H         1 <0>         0.1418
     39 H9          4.6553    9.2853   -0.6788 H         1 <0>         0.1668
     40 H10         3.4000    5.1640    1.0009 H         1 <0>         0.0758
     41 H11         2.7932    6.7318    0.4162 H         1 <0>         0.1005
     42 H12         1.6724    5.5636    1.1561 H         1 <0>         0.0840
     43 H13        -1.3753    4.0898    0.1063 H         1 <0>         0.0803
     44 H14        -0.9784    3.4662   -1.5302 H         1 <0>         0.0861
     45 H15        -0.0604   -0.0202   -0.0838 H         1 <0>         0.1282
     46 H16         2.0138    1.4226   -0.1310 H         1 <0>         0.1235
     47 H17        -1.6334    2.6560    1.9229 H         1 <0>         0.3969
     48 H18        -2.4876    0.8779    3.8401 H         1 <0>         0.1236
     49 H19        -3.7874    1.9582    3.2817 H         1 <0>         0.0760
     50 H20        -5.4728    0.9928    1.8232 H         1 <0>         0.0504
     51 H21        -5.1699   -0.7121    1.3634 H         1 <0>         0.0726
     52 H22        -6.7617   -1.5432    2.9737 H         1 <0>         0.0625
     53 H23        -7.5696   -0.0470    2.4049 H         1 <0>         0.0545
     54 H24        -7.1339   -0.3661    5.0452 H         1 <0>         0.0556
     55 H25        -6.7916    1.2253    4.2967 H         1 <0>         0.0555
     56 H26        -4.8713   -0.9086    5.2216 H         1 <0>         0.0678
     57 H27        -4.6538    0.8633    5.1716 H         1 <0>         0.0612
     58 H28        -4.3346   -2.2858    3.2025 H         1 <0>         0.0573
     59 H29        -3.0262   -1.5356    2.2573 H         1 <0>         0.0825
     60 O3         -1.9983   -2.7955    4.5386 O.co2     1 <0>        -0.7812
@<TRIPOS>BOND
     1    1    2 1
     2    1   33 1
     3    1   34 1
     4    1   35 1
     5    2    6 2
     6    2    3 1
     7    3    4 2
     8    3   14 1
     9    4    5 1
    10    4   13 1
    11    5    6 1
    12    5    7 1
    13    7   12 ar
    14    7    8 ar
    15    8    9 ar
    16    8   36 1
    17    9   10 ar
    18    9   37 1
    19   10   11 ar
    20   10   38 1
    21   11   12 ar
    22   11   39 1
    23   13   40 1
    24   13   41 1
    25   13   42 1
    26   14   15 1
    27   14   20 1
    28   14   16 1
    29   16   17 1
    30   16   43 1
    31   16   44 1
    32   17   18 1
    33   17   19 1
    34   17   21 1
    35   19   20 2
    36   19   45 1
    37   20   46 1
    38   21   22 am
    39   21   47 1
    40   22   23 2
    41   22   24 1
    42   24   25 1
    43   24   48 1
    44   24   49 1
    45   25   29 1
    46   25   26 1
    47   25   30 1
    48   26   27 1
    49   26   50 1
    50   26   51 1
    51   27   28 1
    52   27   52 1
    53   27   53 1
    54   28   29 1
    55   28   54 1
    56   28   55 1
    57   29   56 1
    58   29   57 1
    59   30   31 1
    60   30   58 1
    61   30   59 1
    62   31   32 2
    63   31   60 1
@<TRIPOS>MOLECULE
ZINC13189118
   53    55     0     0     0
SMALL
USER_CHARGES
2-[2-[[4-methyl-3-(1-piperidylsulfonyl)phenyl]amino]-2-oxo-ethyl]sulfanylbenzoic acid
@<TRIPOS>ATOM
      1 C1         -6.4434    9.6651    0.1262 C.3       1 <0>        -0.1886
      2 C2         -5.2502    8.7534   -0.0005 C.ar      1 <0>         0.0046
      3 C3         -5.4124    7.3846    0.1129 C.ar      1 <0>        -0.1196
      4 C4         -4.3220    6.5461   -0.0089 C.ar      1 <0>        -0.0604
      5 C5         -3.0593    7.0796   -0.2326 C.ar      1 <0>         0.1316
      6 C6         -2.8996    8.4542   -0.3455 C.ar      1 <0>        -0.0495
      7 C7         -3.9954    9.2872   -0.2294 C.ar      1 <0>        -0.6616
      8 S1         -3.7939   11.0317   -0.3725 S.o2      1 <0>         2.6951
      9 O1         -4.5548   11.6158    0.6759 O.2       1 <0>        -0.9522
     10 O2         -2.4012   11.2685   -0.5261 O.2       1 <0>        -0.9567
     11 N1         -4.5118   11.4928   -1.7918 N.pl3     1 <0>        -0.9952
     12 C8         -3.7711   11.4330   -3.0592 C.3       1 <0>         0.1214
     13 C9         -4.5925   10.6148   -4.0671 C.3       1 <0>        -0.1372
     14 C10        -5.9930   11.2202   -4.1860 C.3       1 <0>        -0.1165
     15 C11        -6.6953   11.1559   -2.8277 C.3       1 <0>        -0.1427
     16 C12        -5.8996   11.9750   -1.8067 C.3       1 <0>         0.1100
     17 N2         -1.9512    6.2331   -0.3497 N.am      1 <0>        -0.6764
     18 C13        -1.9011    5.0869    0.3575 C.2       1 <0>         0.5374
     19 O3         -2.7697    4.8344    1.1655 O.2       1 <0>        -0.4935
     20 C14        -0.7659    4.1190    0.1443 C.3       1 <0>        -0.2308
     21 S2         -0.9803    2.6885    1.2323 S.3       1 <0>         0.1014
     22 C15         0.4426    1.7494    0.7870 C.ar      1 <0>        -0.0905
     23 C16         1.3199    2.2257   -0.1810 C.ar      1 <0>        -0.1569
     24 C17         2.4294    1.4858   -0.5319 C.ar      1 <0>        -0.1037
     25 C18         2.6805    0.2647    0.0755 C.ar      1 <0>        -0.1486
     26 C19         1.8240   -0.2244    1.0364 C.ar      1 <0>        -0.0577
     27 C20         0.6941    0.5125    1.4038 C.ar      1 <0>        -0.1042
     28 C21        -0.2264   -0.0046    2.4301 C.2       1 <0>         0.4840
     29 O4         -1.2076    0.6391    2.7462 O.co2     1 <0>        -0.5945
     30 H1         -6.8252    9.9039   -0.8665 H         1 <0>         0.0899
     31 H2         -7.2215    9.1669    0.7045 H         1 <0>         0.0837
     32 H3         -6.1466   10.5838    0.6321 H         1 <0>         0.1114
     33 H4         -6.3938    6.9707    0.2916 H         1 <0>         0.1361
     34 H5         -4.4501    5.4770    0.0746 H         1 <0>         0.1464
     35 H6         -1.9198    8.8718   -0.5243 H         1 <0>         0.1447
     36 H7         -3.6190   12.4424   -3.4415 H         1 <0>         0.0765
     37 H8         -2.8063   10.9526   -2.8964 H         1 <0>         0.0887
     38 H9         -4.6700    9.5829   -3.7244 H         1 <0>         0.0688
     39 H10        -4.1016   10.6396   -5.0400 H         1 <0>         0.0753
     40 H11        -6.5703   10.6584   -4.9202 H         1 <0>         0.0649
     41 H12        -5.9135   12.2595   -4.5049 H         1 <0>         0.0649
     42 H13        -6.7531   10.1190   -2.4967 H         1 <0>         0.0737
     43 H14        -7.7012   11.5659   -2.9186 H         1 <0>         0.0774
     44 H15        -6.3397   11.8523   -0.8170 H         1 <0>         0.0983
     45 H16        -5.9176   13.0277   -2.0889 H         1 <0>         0.0762
     46 H17        -1.2192    6.4712   -0.9399 H         1 <0>         0.4131
     47 H18         0.1792    4.6113    0.3734 H         1 <0>         0.1103
     48 H19        -0.7608    3.7880   -0.8943 H         1 <0>         0.1108
     49 H20         1.1317    3.1757   -0.6590 H         1 <0>         0.1174
     50 H21         3.1075    1.8600   -1.2845 H         1 <0>         0.1163
     51 H22         3.5528   -0.3060   -0.2070 H         1 <0>         0.1180
     52 H23         2.0245   -1.1764    1.5053 H         1 <0>         0.1345
     53 O5          0.0191   -1.1918    3.0190 O.co2     1 <0>        -0.7460
@<TRIPOS>BOND
     1    1    2 1
     2    1   30 1
     3    1   31 1
     4    1   32 1
     5    2    7 ar
     6    2    3 ar
     7    3    4 ar
     8    3   33 1
     9    4    5 ar
    10    4   34 1
    11    5    6 ar
    12    5   17 1
    13    6    7 ar
    14    6   35 1
    15    7    8 1
    16    8    9 2
    17    8   10 2
    18    8   11 1
    19   11   16 1
    20   11   12 1
    21   12   13 1
    22   12   36 1
    23   12   37 1
    24   13   14 1
    25   13   38 1
    26   13   39 1
    27   14   15 1
    28   14   40 1
    29   14   41 1
    30   15   16 1
    31   15   42 1
    32   15   43 1
    33   16   44 1
    34   16   45 1
    35   17   18 am
    36   17   46 1
    37   18   19 2
    38   18   20 1
    39   20   21 1
    40   20   47 1
    41   20   48 1
    42   21   22 1
    43   22   27 ar
    44   22   23 ar
    45   23   24 ar
    46   23   49 1
    47   24   25 ar
    48   24   50 1
    49   25   26 ar
    50   25   51 1
    51   26   27 ar
    52   26   52 1
    53   27   28 1
    54   28   29 2
    55   28   53 1
@<TRIPOS>MOLECULE
ZINC06238996
   48    50     0     0     0
SMALL
USER_CHARGES
(5S)-4-(4-chlorobenzoyl)-3-hydroxy-5-(4-hydroxy-3-methoxy-phenyl)-1-(2-methoxyethyl)-5H-pyrrol-2-one
@<TRIPOS>ATOM
      1 C1          0.4147    2.4514   -8.6206 C.3       1 <0>         0.0305
      2 O1          0.7134    1.2488   -7.9090 O.3       1 <0>        -0.3691
      3 C2         -0.0580    1.0703   -6.7195 C.3       1 <0>         0.0419
      4 C3          0.3435   -0.2421   -6.0433 C.3       1 <0>         0.1363
      5 N1          1.7349   -0.1538   -5.5932 N.am      1 <0>        -0.6101
      6 C4          2.1899    0.3251   -4.2827 C.3       1 <0>         0.2715
      7 H1          1.8426    1.3557   -4.1174 H         1 <0>         0.0616
      8 C5          3.6975    0.2262   -4.2981 C.2       1 <0>        -0.5071
      9 C6          4.0443   -0.2644   -5.5110 C.2       1 <0>         0.2692
     10 C7          2.8215   -0.4974   -6.3083 C.2       1 <0>         0.5169
     11 O2          2.8008   -0.9348   -7.4415 O.2       1 <0>        -0.5202
     12 O3          5.3091   -0.5034   -5.9274 O.3       1 <0>        -0.6527
     13 C8          4.6088    0.5912   -3.2093 C.2       1 <0>         0.5040
     14 O4          5.2566   -0.2697   -2.6439 O.2       1 <0>        -0.4685
     15 C9          4.7406    2.0048   -2.7985 C.ar      1 <0>        -0.1286
     16 C10         3.9414    2.9850   -3.3917 C.ar      1 <0>        -0.0556
     17 C11         4.0650    4.3010   -3.0000 C.ar      1 <0>        -0.1277
     18 C12         4.9876    4.6539   -2.0285 C.ar      1 <0>        -0.0222
     19 C13         5.7872    3.6872   -1.4406 C.ar      1 <0>        -0.1258
     20 C14         5.6690    2.3669   -1.8195 C.ar      1 <0>        -0.0640
     21 Cl1         5.1428    6.3143   -1.5464 Cl        1 <0>        -0.0808
     22 C15         1.6248   -0.5438   -3.1888 C.ar      1 <0>        -0.0795
     23 C16         1.6089   -1.9181   -3.3384 C.ar      1 <0>        -0.0799
     24 C17         1.0912   -2.7195   -2.3380 C.ar      1 <0>        -0.1297
     25 C18         0.5871   -2.1457   -1.1819 C.ar      1 <0>         0.1251
     26 C19         0.6035   -0.7625   -1.0310 C.ar      1 <0>         0.0285
     27 C20         1.1187    0.0354   -2.0401 C.ar      1 <0>        -0.1601
     28 O5          0.1100   -0.1946    0.1018 O.3       1 <0>        -0.3300
     29 C21         0.0519    1.2327    0.1398 C.3       1 <0>         0.0316
     30 O6          0.0770   -2.9326   -0.1970 O.3       1 <0>        -0.5101
     31 H2          1.0475    2.5131   -9.5182 H         1 <0>         0.0840
     32 H3          0.6110    3.3188   -7.9733 H         1 <0>         0.0371
     33 H4         -0.6443    2.4480   -8.9180 H         1 <0>         0.0353
     34 H5          0.1284    1.9088   -6.0323 H         1 <0>         0.0495
     35 H6         -1.1269    1.0380   -6.9771 H         1 <0>         0.0533
     36 H7         -0.3110   -0.4239   -5.1781 H         1 <0>         0.0903
     37 H8          0.2419   -1.0701   -6.7603 H         1 <0>         0.0875
     38 H9          3.2252    2.7118   -4.1525 H         1 <0>         0.1432
     39 H10         3.4445    5.0591   -3.4547 H         1 <0>         0.1327
     40 H11         6.5048    3.9685   -0.6841 H         1 <0>         0.1326
     41 H12         6.2931    1.6143   -1.3608 H         1 <0>         0.1392
     42 H13         2.0015   -2.3666   -4.2391 H         1 <0>         0.1260
     43 H14         1.0800   -3.7928   -2.4574 H         1 <0>         0.1309
     44 H15         1.1281    1.1094   -1.9275 H         1 <0>         0.1256
     45 H16        -0.3639    1.5572    1.1051 H         1 <0>         0.0973
     46 H17        -0.5901    1.5954   -0.6765 H         1 <0>         0.0537
     47 H18         1.0650    1.6442    0.0200 H         1 <0>         0.0560
     48 H19        -0.3229   -2.4758    0.7203 H         1 <0>         0.4304
@<TRIPOS>BOND
     1    1    2 1
     2    1   31 1
     3    1   32 1
     4    1   33 1
     5    2    3 1
     6    3    4 1
     7    3   34 1
     8    3   35 1
     9    4    5 1
    10    4   36 1
    11    4   37 1
    12    5   10 am
    13    5    6 1
    14    6    7 1
    15    6    8 1
    16    6   22 1
    17    8    9 2
    18    8   13 1
    19    9   10 1
    20    9   12 1
    21   10   11 2
    22   13   14 2
    23   13   15 1
    24   15   20 ar
    25   15   16 ar
    26   16   17 ar
    27   16   38 1
    28   17   18 ar
    29   17   39 1
    30   18   19 ar
    31   18   21 1
    32   19   20 ar
    33   19   40 1
    34   20   41 1
    35   22   27 ar
    36   22   23 ar
    37   23   24 ar
    38   23   42 1
    39   24   25 ar
    40   24   43 1
    41   25   26 ar
    42   25   30 1
    43   26   27 ar
    44   26   28 1
    45   27   44 1
    46   28   29 1
    47   29   45 1
    48   29   46 1
    49   29   47 1
    50   30   48 1
@<TRIPOS>MOLECULE
ZINC31304423
   54    57     0     0     0
SMALL
USER_CHARGES
N-[4-[1-(4-fluorophenyl)-2,5-dimethyl-pyrrol-3-yl]thiazol-2-yl]-2-(3-propyl-5-thioxo-1H-1,2,4-triazol-4-yl)acetamide
@<TRIPOS>ATOM
      1 C1          5.6135    0.7823   -1.4899 C.3       1 <0>        -0.1486
      2 C2          4.0837    0.7656   -1.4754 C.3       1 <0>        -0.1207
      3 C3          3.5875    0.7523   -0.0282 C.3       1 <0>        -0.0278
      4 C4          2.0807    0.7359   -0.0139 C.2       1 <0>         0.1795
      5 N1          1.3163    1.7801   -0.0009 N.2       1 <0>        -0.3252
      6 N2         -0.0162    1.3452    0.0094 N.2       1 <0>        -0.3825
      7 C5          0.0021   -0.0041    0.0020 C.2       1 <0>         0.3959
      8 S1         -1.3637   -1.0363    0.0104 S.3       1 <0>        -0.7786
      9 N3          1.2938   -0.3896   -0.0124 N.pl3     1 <0>        -0.4922
     10 C6          1.7759   -1.7729   -0.0249 C.3       1 <0>         0.1078
     11 C7          1.9271   -2.2394   -1.4498 C.2       1 <0>         0.5057
     12 O1          1.6587   -1.4900   -2.3649 O.2       1 <0>        -0.4710
     13 N4          2.3607   -3.4892   -1.7074 N.am      1 <0>        -0.6253
     14 C8          2.5002   -3.9193   -3.0214 C.2       1 <0>         0.3045
     15 N5          2.9049   -5.0907   -3.4677 N.2       1 <0>        -0.5497
     16 C9          2.9820   -5.3414   -4.7668 C.2       1 <0>         0.1633
     17 C10         2.6286   -4.3470   -5.6345 C.2       1 <0>        -0.2749
     18 S2          2.1779   -3.0513   -4.4899 S.3       1 <0>         0.1539
     19 C11         3.4393   -6.6635   -5.2644 C.2       1 <0>        -0.0951
     20 C12         3.5596   -7.0567   -6.6217 C.2       1 <0>        -0.1654
     21 C13         4.0088   -8.3260   -6.6353 C.2       1 <0>         0.0150
     22 N6          4.1645   -8.7446   -5.3444 N.pl3     1 <0>        -0.4060
     23 C14         3.8156   -7.7261   -4.5041 C.2       1 <0>         0.0635
     24 C15         3.8437   -7.7717   -2.9980 C.3       1 <0>        -0.0725
     25 C16         4.6096  -10.0136   -4.9467 C.ar      1 <0>         0.1134
     26 C17         5.8172  -10.1476   -4.2751 C.ar      1 <0>        -0.0800
     27 C18         6.2516  -11.3977   -3.8800 C.ar      1 <0>        -0.1407
     28 C19         5.4883  -12.5181   -4.1623 C.ar      1 <0>         0.1060
     29 C20         4.2860  -12.3870   -4.8368 C.ar      1 <0>        -0.1410
     30 C21         3.8460  -11.1380   -5.2293 C.ar      1 <0>        -0.0808
     31 F1          5.9173  -13.7407   -3.7796 F         1 <0>        -0.1343
     32 C22         4.2868   -9.1483   -7.8672 C.3       1 <0>        -0.0861
     33 H1          5.9702    0.7919   -2.5304 H         1 <0>         0.0540
     34 H2          5.9948   -0.1146   -0.9798 H         1 <0>         0.0510
     35 H3          5.9753    1.6816   -0.9699 H         1 <0>         0.0558
     36 H4          3.7024    1.6625   -1.9855 H         1 <0>         0.0697
     37 H5          3.7219   -0.1337   -1.9954 H         1 <0>         0.0628
     38 H6          3.9688   -0.1446    0.4819 H         1 <0>         0.0695
     39 H7          3.9493    1.6516    0.4918 H         1 <0>         0.0909
     40 H8          2.7498   -1.8264    0.4837 H         1 <0>         0.1155
     41 H9          1.0537   -2.4177    0.4973 H         1 <0>         0.1375
     42 H10         2.6042   -4.1689   -0.8775 H         1 <0>         0.4496
     43 H11         2.6197   -4.3460   -6.7145 H         1 <0>         0.1888
     44 H12         3.3347   -6.4489   -7.4856 H         1 <0>         0.1418
     45 H13         4.1912   -8.7617   -2.6676 H         1 <0>         0.0508
     46 H14         2.8321   -7.5888   -2.6067 H         1 <0>         0.0828
     47 H15         4.5283   -6.9979   -2.6205 H         1 <0>         0.0821
     48 H16         6.4149   -9.2745   -4.0587 H         1 <0>         0.1407
     49 H17         7.1890  -11.5019   -3.3538 H         1 <0>         0.1451
     50 H18         3.6922  -13.2619   -5.0564 H         1 <0>         0.1450
     51 H19         2.9086  -11.0362   -5.7559 H         1 <0>         0.1406
     52 H20         4.6430  -10.1456   -7.5696 H         1 <0>         0.0614
     53 H21         5.0568   -8.6500   -8.4746 H         1 <0>         0.0769
     54 H22         3.3635   -9.2495   -8.4565 H         1 <0>         0.0773
@<TRIPOS>BOND
     1    1    2 1
     2    1   33 1
     3    1   34 1
     4    1   35 1
     5    2    3 1
     6    2   36 1
     7    2   37 1
     8    3    4 1
     9    3   38 1
    10    3   39 1
    11    4    9 1
    12    4    5 2
    13    5    6 1
    14    6    7 2
    15    7    8 1
    16    7    9 1
    17    9   10 1
    18   10   11 1
    19   10   40 1
    20   10   41 1
    21   11   12 2
    22   11   13 am
    23   13   14 1
    24   13   42 1
    25   14   18 1
    26   14   15 2
    27   15   16 1
    28   16   17 2
    29   16   19 1
    30   17   18 1
    31   17   43 1
    32   19   23 2
    33   19   20 1
    34   20   21 2
    35   20   44 1
    36   21   22 1
    37   21   32 1
    38   22   23 1
    39   22   25 1
    40   23   24 1
    41   24   45 1
    42   24   46 1
    43   24   47 1
    44   25   30 ar
    45   25   26 ar
    46   26   27 ar
    47   26   48 1
    48   27   28 ar
    49   27   49 1
    50   28   29 ar
    51   28   31 1
    52   29   30 ar
    53   29   50 1
    54   30   51 1
    55   32   52 1
    56   32   53 1
    57   32   54 1
@<TRIPOS>MOLECULE
ZINC40095362
   59    63     0     0     0
SMALL
USER_CHARGES

@<TRIPOS>ATOM
      1 C1          0.2751   -1.9570   -3.9460 C.3       1 <0>        -0.1481
      2 C2         -0.3560   -3.1306   -3.1941 C.3       1 <0>         0.0751
      3 H1         -0.8457   -3.8134   -3.8884 H         1 <0>         0.0850
      4 C3         -1.3552   -2.6241   -2.1273 C.3       1 <0>        -0.1017
      5 C4         -1.1439   -3.6199   -1.0029 C.ar      1 <0>        -0.1910
      6 C5         -1.8856   -3.9184    0.1128 C.ar      1 <0>        -0.0220
      7 C6         -1.4464   -4.9103    0.9962 C.ar      1 <0>        -0.1641
      8 C7         -0.2523   -5.5881    0.7307 C.ar      1 <0>        -0.0309
      9 C8          0.4842   -5.2786   -0.3875 C.ar      1 <0>        -0.1521
     10 C9          0.0494   -4.2864   -1.2687 C.ar      1 <0>         0.1182
     11 O1          0.6305   -3.8225   -2.4102 O.3       1 <0>        -0.3032
     12 C10        -2.2367   -5.2385    2.1989 C.2       1 <0>         0.5101
     13 O2         -3.2349   -4.5953    2.4654 O.2       1 <0>        -0.4765
     14 C11        -1.8190   -6.3395    3.0728 C.2       1 <0>        -0.5017
     15 C12        -2.4784   -7.5036    3.2756 C.2       1 <0>         0.2633
     16 C13        -1.7143   -8.3349    4.2293 C.2       1 <0>         0.5109
     17 O3         -2.0461   -9.4386    4.6137 O.2       1 <0>        -0.5381
     18 N1         -0.5969   -7.6886    4.6088 N.am      1 <0>        -0.6051
     19 C14        -0.5661   -6.3955    3.9154 C.3       1 <0>         0.2658
     20 H2          0.3166   -6.3297    3.2793 H         1 <0>         0.0817
     21 C15        -0.5666   -5.2723    4.9200 C.ar      1 <0>        -0.0481
     22 C16        -1.2563   -5.4107    6.1107 C.ar      1 <0>        -0.0984
     23 C17        -1.2584   -4.3823    7.0347 C.ar      1 <0>        -0.1042
     24 C18        -0.5714   -3.2131    6.7704 C.ar      1 <0>        -0.1320
     25 C19         0.1213   -3.0717    5.5767 C.ar      1 <0>         0.0804
     26 C20         0.1265   -4.1078    4.6533 C.ar      1 <0>        -0.1289
     27 O4          0.7977   -1.9227    5.3142 O.3       1 <0>        -0.2589
     28 C21         0.3398   -1.1276    4.3120 C.ar      1 <0>         0.1228
     29 C22        -0.8594   -1.4260    3.6809 C.ar      1 <0>        -0.1842
     30 C23        -1.3227   -0.6161    2.6622 C.ar      1 <0>        -0.0757
     31 C24        -0.5922    0.4909    2.2710 C.ar      1 <0>        -0.1563
     32 C25         0.6033    0.7902    2.8979 C.ar      1 <0>        -0.0886
     33 C26         1.0677   -0.0127    3.9216 C.ar      1 <0>        -0.1513
     34 C27         0.4130   -8.1895    5.5444 C.3       1 <0>         0.1348
     35 C28         1.4843   -8.9626    4.7727 C.3       1 <0>         0.0590
     36 O5          2.1837   -8.0691    3.9041 O.3       1 <0>        -0.5648
     37 O6         -3.6510   -7.8514    2.6971 O.3       1 <0>        -0.6550
     38 H3          1.0068   -2.3344   -4.6604 H         1 <0>         0.0665
     39 H4         -0.5011   -1.4064   -4.4775 H         1 <0>         0.0771
     40 H5          0.7693   -1.2940   -3.2358 H         1 <0>         0.0666
     41 H6         -1.1027   -1.6137   -1.8055 H         1 <0>         0.0888
     42 H7         -2.3786   -2.6684   -2.4998 H         1 <0>         0.0889
     43 H8         -2.8061   -3.3885    0.3084 H         1 <0>         0.1298
     44 H9          0.0922   -6.3567    1.4066 H         1 <0>         0.1438
     45 H10         1.4054   -5.8062   -0.5860 H         1 <0>         0.1279
     46 H11        -1.7945   -6.3235    6.3189 H         1 <0>         0.1228
     47 H12        -1.7978   -4.4929    7.9638 H         1 <0>         0.1268
     48 H13        -0.5740   -2.4098    7.4922 H         1 <0>         0.1257
     49 H14         0.6684   -4.0018    3.7251 H         1 <0>         0.1260
     50 H15        -1.4300   -2.2909    3.9856 H         1 <0>         0.1332
     51 H16        -2.2560   -0.8479    2.1707 H         1 <0>         0.1250
     52 H17        -0.9560    1.1226    1.4742 H         1 <0>         0.1205
     53 H18         1.1721    1.6552    2.5902 H         1 <0>         0.1260
     54 H19         1.9992    0.2242    4.4142 H         1 <0>         0.1280
     55 H20         0.8745   -7.3501    6.0645 H         1 <0>         0.0826
     56 H21        -0.0603   -8.8508    6.2703 H         1 <0>         0.0924
     57 H22         2.1868   -9.4101    5.4758 H         1 <0>         0.0511
     58 H23         1.0115   -9.7475    4.1824 H         1 <0>         0.0502
     59 H24         2.8794   -8.4919    3.3823 H         1 <0>         0.3740
@<TRIPOS>BOND
     1    1    2 1
     2    1   38 1
     3    1   39 1
     4    1   40 1
     5    2    3 1
     6    2   11 1
     7    2    4 1
     8    4    5 1
     9    4   41 1
    10    4   42 1
    11    5   10 ar
    12    5    6 ar
    13    6    7 ar
    14    6   43 1
    15    7    8 ar
    16    7   12 1
    17    8    9 ar
    18    8   44 1
    19    9   10 ar
    20    9   45 1
    21   10   11 1
    22   12   13 2
    23   12   14 1
    24   14   19 1
    25   14   15 2
    26   15   16 1
    27   15   37 1
    28   16   17 2
    29   16   18 am
    30   18   19 1
    31   18   34 1
    32   19   20 1
    33   19   21 1
    34   21   26 ar
    35   21   22 ar
    36   22   23 ar
    37   22   46 1
    38   23   24 ar
    39   23   47 1
    40   24   25 ar
    41   24   48 1
    42   25   26 ar
    43   25   27 1
    44   26   49 1
    45   27   28 1
    46   28   33 ar
    47   28   29 ar
    48   29   30 ar
    49   29   50 1
    50   30   31 ar
    51   30   51 1
    52   31   32 ar
    53   31   52 1
    54   32   33 ar
    55   32   53 1
    56   33   54 1
    57   34   35 1
    58   34   55 1
    59   34   56 1
    60   35   36 1
    61   35   57 1
    62   35   58 1
    63   36   59 1
@<TRIPOS>MOLECULE
ZINC04192202
   50    51     0     0     0
SMALL
USER_CHARGES
4-amino-N'-[1-(tert-butylcarbamoyl)ethyl]-N'-(2-thienylmethyl)isothiazole-3,5-dicarboxamide
@<TRIPOS>ATOM
      1 C1         -1.3817    2.4867   -1.4074 C.3       1 <0>        -0.1596
      2 C2         -1.3997    1.9986    0.0425 C.3       1 <0>         0.1242
      3 H1         -1.4472    2.8560    0.7139 H         1 <0>         0.1286
      4 C3         -0.1464    1.2100    0.3226 C.2       1 <0>         0.5095
      5 O1         -0.2098    0.0109    0.4930 O.2       1 <0>        -0.5254
      6 N1          1.0457    1.8365    0.3782 N.am      1 <0>        -0.7190
      7 C4          2.2648    1.0690    0.6445 C.3       1 <0>         0.1689
      8 C5          2.4522    0.0142   -0.4478 C.3       1 <0>        -0.1633
      9 C6          3.4693    2.0123    0.6547 C.3       1 <0>        -0.1568
     10 C7          2.1460    0.3789    2.0049 C.3       1 <0>        -0.1647
     11 N2         -2.5714    1.1456    0.2561 N.am      1 <0>        -0.5834
     12 C8         -2.8133   -0.0004   -0.6239 C.3       1 <0>         0.2021
     13 C9         -3.7085    0.4197   -1.7611 C.2       1 <0>        -0.1846
     14 C10        -3.3716    0.7884   -3.0212 C.2       1 <0>        -0.1233
     15 C11        -4.3730    1.1372   -3.9079 C.2       1 <0>        -0.1632
     16 C12        -5.6623    1.1004   -3.4910 C.2       1 <0>        -0.1722
     17 S1         -5.4883    0.5534   -1.8005 S.3       1 <0>         0.0466
     18 C13        -3.4267    1.4150    1.2622 C.2       1 <0>         0.6294
     19 O2         -3.1814    2.3140    2.0452 O.2       1 <0>        -0.5345
     20 C14        -4.6510    0.6262    1.4134 C.2       1 <0>        -0.3909
     21 C15        -5.7365    0.8319    2.2669 C.2       1 <0>         0.2787
     22 C16        -6.7237   -0.1425    2.1198 C.2       1 <0>        -0.0258
     23 N3         -6.5504   -1.1067    1.2430 N.2       1 <0>        -0.4488
     24 S2         -5.1576   -0.8479    0.5522 S.3       1 <0>         0.4625
     25 C17        -7.9484   -0.0919    2.9392 C.2       1 <0>         0.6015
     26 O3         -8.1019    0.8026    3.7485 O.2       1 <0>        -0.5404
     27 N4         -8.8978   -1.0370    2.7912 N.am      1 <0>        -0.8296
     28 N5         -5.8233    1.8887    3.1633 N.pl3     1 <0>        -0.8034
     29 H2         -0.5669    3.1983   -1.5412 H         1 <0>         0.0761
     30 H3         -1.2357    1.6375   -2.0749 H         1 <0>         0.0695
     31 H4         -2.3298    2.9722   -1.6391 H         1 <0>         0.0778
     32 H5          1.0964    2.7955    0.2420 H         1 <0>         0.4005
     33 H6          2.5368    0.5058   -1.4169 H         1 <0>         0.0542
     34 H7          3.3592   -0.5569   -0.2496 H         1 <0>         0.0636
     35 H8          1.5941   -0.6579   -0.4550 H         1 <0>         0.0780
     36 H9          3.3358    2.7638    1.4328 H         1 <0>         0.0628
     37 H10         4.3764    1.4413    0.8528 H         1 <0>         0.0747
     38 H11         3.5539    2.5040   -0.3145 H         1 <0>         0.0627
     39 H12         1.2879   -0.2932    1.9977 H         1 <0>         0.0780
     40 H13         3.0531   -0.1922    2.2030 H         1 <0>         0.0635
     41 H14         2.0125    1.1303    2.7831 H         1 <0>         0.0541
     42 H15        -1.8643   -0.3595   -1.0221 H         1 <0>         0.1276
     43 H16        -3.2949   -0.7978   -0.0579 H         1 <0>         0.0859
     44 H17        -2.3363    0.8089   -3.3280 H         1 <0>         0.1349
     45 H18        -4.1318    1.4344   -4.9178 H         1 <0>         0.1325
     46 H19        -6.5617    1.3367   -4.0403 H         1 <0>         0.1818
     47 H20        -8.7753   -1.7506    2.1456 H         1 <0>         0.4121
     48 H21        -9.7035   -1.0037    3.3303 H         1 <0>         0.4102
     49 H22        -5.1033    2.5361    3.2211 H         1 <0>         0.4167
     50 H23        -6.6040    1.9795    3.7317 H         1 <0>         0.4198
@<TRIPOS>BOND
     1    1    2 1
     2    1   29 1
     3    1   30 1
     4    1   31 1
     5    2    3 1
     6    2    4 1
     7    2   11 1
     8    4    5 2
     9    4    6 am
    10    6    7 1
    11    6   32 1
    12    7    8 1
    13    7    9 1
    14    7   10 1
    15    8   33 1
    16    8   34 1
    17    8   35 1
    18    9   36 1
    19    9   37 1
    20    9   38 1
    21   10   39 1
    22   10   40 1
    23   10   41 1
    24   11   12 1
    25   11   18 am
    26   12   13 1
    27   12   42 1
    28   12   43 1
    29   13   17 1
    30   13   14 2
    31   14   15 1
    32   14   44 1
    33   15   16 2
    34   15   45 1
    35   16   17 1
    36   16   46 1
    37   18   19 2
    38   18   20 1
    39   20   24 1
    40   20   21 2
    41   21   22 1
    42   21   28 1
    43   22   23 2
    44   22   25 1
    45   23   24 1
    46   25   26 2
    47   25   27 am
    48   27   47 1
    49   27   48 1
    50   28   49 1
    51   28   50 1
@<TRIPOS>MOLECULE
ZINC17162157
   71    75     0     0     0
SMALL
USER_CHARGES
4-[(3S,5R,8R,9S,10R,13R,14S,17R)-3,5,14-trihydroxy-10-[(E)-(2-hydroxyethylhydrazono)methyl]-13-methyl-2,3,4,6,7,8,9,11,12,15,16,17-dodecahydro-1H-cyclopenta[a]phenanthren-17-yl]-5H-furan-2-one
@<TRIPOS>ATOM
      1 C1          5.9282   -3.2110    3.0143 C.3       1 <0>        -0.1388
      2 C2          5.0338   -2.2940    3.8510 C.3       1 <0>        -0.0311
      3 C3          3.5479   -2.6257    3.6949 C.3       1 <0>        -0.1090
      4 C4          3.0292   -2.2114    2.2971 C.3       1 <0>        -0.1167
      5 C5          3.1879   -0.6920    2.1784 C.3       1 <0>        -0.0574
      6 H1          2.6551   -0.2030    2.9939 H         1 <0>         0.0911
      7 C6          4.6728   -0.3398    2.2507 C.3       1 <0>        -0.0979
      8 H2          5.1865   -0.8248    1.4206 H         1 <0>         0.0772
      9 C7          5.2949   -0.8092    3.5433 C.3       1 <0>         0.1492
     10 C8          4.7229   -0.0811    4.7739 C.3       1 <0>        -0.1471
     11 C9          5.1306   -0.9932    5.9538 C.3       1 <0>        -0.1150
     12 C10         5.3568   -2.3985    5.3655 C.3       1 <0>        -0.0367
     13 H3          4.6887   -3.1158    5.8422 H         1 <0>         0.0941
     14 C11         6.7909   -2.8174    5.5626 C.2       1 <0>        -0.0531
     15 C12         7.2162   -3.9516    6.1130 C.2       1 <0>        -0.2530
     16 C13         8.6813   -3.9751    6.1162 C.2       1 <0>         0.4945
     17 O1          9.3635   -4.8805    6.5544 O.2       1 <0>        -0.4639
     18 O2          9.1600   -2.8452    5.5628 O.3       1 <0>        -0.3309
     19 C14         8.0196   -2.0325    5.1667 C.3       1 <0>         0.0612
     20 O3          6.7072   -0.5983    3.4889 O.3       1 <0>        -0.5582
     21 C15         4.8478    1.1745    2.1159 C.3       1 <0>        -0.1134
     22 C16         4.2752    1.6380    0.7750 C.3       1 <0>        -0.1455
     23 C17         2.8020    1.2852    0.7015 C.3       1 <0>         0.1577
     24 C18         2.6149   -0.2272    0.8378 C.3       1 <0>         0.0314
     25 C19         1.1243   -0.5656    0.7753 C.3       1 <0>        -0.0948
     26 C20         0.5506   -0.0984   -0.5640 C.3       1 <0>        -0.1606
     27 C21         0.7367    1.4142   -0.6985 C.3       1 <0>         0.1094
     28 H4          0.2162    1.9181    0.1159 H         1 <0>         0.0579
     29 C22         2.2276    1.7523   -0.6375 C.3       1 <0>        -0.1355
     30 O4          0.2001    1.8507   -1.9490 O.3       1 <0>        -0.5726
     31 C23         3.3362   -0.9258   -0.2859 C.2       1 <0>         0.0265
     32 N1          2.6844   -1.6643   -1.1035 N.2       1 <0>        -0.2083
     33 N2          3.3549   -2.3137   -2.1482 N.pl3     1 <0>        -0.6628
     34 C24         2.6089   -3.1589   -3.0839 C.3       1 <0>         0.1603
     35 C25         3.5704   -3.7448   -4.1198 C.3       1 <0>         0.0635
     36 O5          4.4929   -4.6222   -3.4708 O.3       1 <0>        -0.5711
     37 O6          2.1214    1.9475    1.7693 O.3       1 <0>        -0.5508
     38 H5          6.9697   -2.9139    3.1375 H         1 <0>         0.0689
     39 H6          5.8028   -4.2418    3.3457 H         1 <0>         0.0553
     40 H7          5.6493   -3.1307    1.9637 H         1 <0>         0.0591
     41 H8          3.4046   -3.6988    3.8219 H         1 <0>         0.0685
     42 H9          2.9797   -2.0952    4.4590 H         1 <0>         0.0706
     43 H10         1.9771   -2.4784    2.1974 H         1 <0>         0.0723
     44 H11         3.6096   -2.7021    1.5159 H         1 <0>         0.0664
     45 H12         5.1722    0.9064    4.8789 H         1 <0>         0.0746
     46 H13         3.6380   -0.0024    4.7034 H         1 <0>         0.0835
     47 H14         6.0507   -0.6264    6.4088 H         1 <0>         0.0703
     48 H15         4.3327   -1.0230    6.6958 H         1 <0>         0.0731
     49 H16         6.5795   -4.7343    6.4985 H         1 <0>         0.1617
     50 H17         8.0292   -1.8684    4.0892 H         1 <0>         0.1484
     51 H18         8.0408   -1.0780    5.6925 H         1 <0>         0.1131
     52 H19         6.9621    0.3249    3.3550 H         1 <0>         0.3745
     53 H20         4.3208    1.6748    2.9283 H         1 <0>         0.0768
     54 H21         5.9080    1.4232    2.1633 H         1 <0>         0.0623
     55 H22         4.3992    2.7167    0.6802 H         1 <0>         0.0703
     56 H23         4.8030    1.1387   -0.0376 H         1 <0>         0.0709
     57 H24         0.6029   -0.0620    1.5893 H         1 <0>         0.0708
     58 H25         0.9921   -1.6433    0.8710 H         1 <0>         0.0722
     59 H26        -0.5115   -0.3392   -0.6081 H         1 <0>         0.0580
     60 H27         1.0716   -0.6024   -1.3780 H         1 <0>         0.0983
     61 H28         2.7481    1.2482   -1.4518 H         1 <0>         0.0750
     62 H29         2.3600    2.8299   -0.7335 H         1 <0>         0.0696
     63 H30        -0.7434    1.6685   -2.0572 H         1 <0>         0.3778
     64 H31         4.4030   -0.8034   -0.4015 H         1 <0>         0.0989
     65 H32         4.3130   -2.2038   -2.2520 H         1 <0>         0.3775
     66 H33         2.1267   -3.9689   -2.5367 H         1 <0>         0.0639
     67 H34         1.8511   -2.5603   -3.5893 H         1 <0>         0.0706
     68 H35         3.0045   -4.3009   -4.8672 H         1 <0>         0.0656
     69 H36         4.1177   -2.9369   -4.6054 H         1 <0>         0.0514
     70 H37         5.1341   -5.0307   -4.0684 H         1 <0>         0.3827
     71 H38         2.1974    2.9113    1.7463 H         1 <0>         0.3770
@<TRIPOS>BOND
     1    1    2 1
     2    1   38 1
     3    1   39 1
     4    1   40 1
     5    2    9 1
     6    2   12 1
     7    2    3 1
     8    3    4 1
     9    3   41 1
    10    3   42 1
    11    4    5 1
    12    4   43 1
    13    4   44 1
    14    5    6 1
    15    5   24 1
    16    5    7 1
    17    7    8 1
    18    7    9 1
    19    7   21 1
    20    9   10 1
    21    9   20 1
    22   10   11 1
    23   10   45 1
    24   10   46 1
    25   11   12 1
    26   11   47 1
    27   11   48 1
    28   12   13 1
    29   12   14 1
    30   14   19 1
    31   14   15 2
    32   15   16 1
    33   15   49 1
    34   16   17 2
    35   16   18 1
    36   18   19 1
    37   19   50 1
    38   19   51 1
    39   20   52 1
    40   21   22 1
    41   21   53 1
    42   21   54 1
    43   22   23 1
    44   22   55 1
    45   22   56 1
    46   23   29 1
    47   23   24 1
    48   23   37 1
    49   24   25 1
    50   24   31 1
    51   25   26 1
    52   25   57 1
    53   25   58 1
    54   26   27 1
    55   26   59 1
    56   26   60 1
    57   27   28 1
    58   27   29 1
    59   27   30 1
    60   29   61 1
    61   29   62 1
    62   30   63 1
    63   31   32 2
    64   31   64 1
    65   32   33 1
    66   33   34 1
    67   33   65 1
    68   34   35 1
    69   34   66 1
    70   34   67 1
    71   35   36 1
    72   35   68 1
    73   35   69 1
    74   36   70 1
    75   37   71 1
@<TRIPOS>MOLECULE
ZINC40758680
   47    50     0     0     0
SMALL
USER_CHARGES

@<TRIPOS>ATOM
      1 C1          2.3943    0.9666    0.3119 C.3       1 <0>        -0.1064
      2 C2          1.7555   -0.3954    0.2221 C.ar      1 <0>         0.1524
      3 C3          1.7655   -1.0705   -0.9966 C.ar      1 <0>        -0.1695
      4 C4          1.1912   -2.3056   -1.0960 C.ar      1 <0>        -0.0562
      5 C5          0.6010   -2.8586    0.0566 C.ar      1 <0>        -0.0848
      6 C6         -0.0074   -4.1242    0.0290 C.ar      1 <0>        -0.1278
      7 C7         -0.5694   -4.6325    1.1604 C.ar      1 <0>        -0.0854
      8 C8         -0.5519   -3.9154    2.3533 C.ar      1 <0>        -0.1243
      9 C9          0.0350   -2.6706    2.4204 C.ar      1 <0>         0.1875
     10 C10         0.6266   -2.1175    1.2629 C.ar      1 <0>         0.1085
     11 N1          1.2095   -0.9164    1.2941 N.ar      1 <0>        -0.4798
     12 N2          0.0449   -1.9621    3.6218 N.pl3     1 <0>        -0.6327
     13 C11        -0.0450   -2.6425    4.8308 C.ar      1 <0>         0.3927
     14 C12        -0.1614   -1.9408    6.0322 C.ar      1 <0>         0.0201
     15 C13        -0.2482   -2.6733    7.2176 C.ar      1 <0>         0.4040
     16 N3         -0.2171   -4.0025    7.1577 N.ar      1 <0>        -0.5700
     17 C14        -0.1062   -4.6261    6.0023 C.ar      1 <0>         0.3296
     18 N4         -0.0271   -3.9731    4.8605 N.ar      1 <0>        -0.5567
     19 N5         -0.3650   -2.0246    8.4411 N.pl3     1 <0>        -0.5123
     20 N6         -0.4514   -2.7703    9.6240 N.am      1 <0>        -0.4869
     21 C15        -0.5646   -2.1411   10.8105 C.2       1 <0>         0.5700
     22 O1         -0.5917   -0.9271   10.8543 O.2       1 <0>        -0.5380
     23 C16        -0.6559   -2.9298   12.0615 C.ar      1 <0>         0.0835
     24 C17        -0.7785   -2.2737   13.2842 C.ar      1 <0>        -0.1054
     25 C18        -0.8629   -3.0249   14.4458 C.ar      1 <0>        -0.0794
     26 C19        -0.8218   -4.4068   14.3440 C.ar      1 <0>        -0.1440
     27 C20        -0.6985   -4.9924   13.0943 C.ar      1 <0>         0.1023
     28 N7         -0.6258   -4.2555   12.0073 N.ar      1 <0>        -0.4596
     29 N8         -0.1897   -0.5372    6.0480 N.pl3     1 <0>        -0.8736
     30 H1          3.4457    0.8579    0.5782 H         1 <0>         0.0798
     31 H2          2.3137    1.4699   -0.6516 H         1 <0>         0.0774
     32 H3          1.8857    1.5569    1.0740 H         1 <0>         0.0768
     33 H4          2.2265   -0.6174   -1.8618 H         1 <0>         0.1372
     34 H5          1.1894   -2.8430   -2.0327 H         1 <0>         0.1408
     35 H6         -0.0299   -4.6933   -0.8886 H         1 <0>         0.1286
     36 H7         -1.0359   -5.6061    1.1317 H         1 <0>         0.1301
     37 H8         -1.0044   -4.3400    3.2373 H         1 <0>         0.1593
     38 H9          0.1146   -0.9946    3.6137 H         1 <0>         0.4213
     39 H10        -0.0837   -5.7058    5.9903 H         1 <0>         0.2020
     40 H11        -0.3866   -1.0554    8.4760 H         1 <0>         0.4378
     41 H12        -0.4297   -3.7394    9.5890 H         1 <0>         0.4451
     42 H13        -0.8070   -1.1949   13.3264 H         1 <0>         0.1507
     43 H14        -0.9582   -2.5446   15.4084 H         1 <0>         0.1463
     44 H15        -0.8849   -5.0210   15.2301 H         1 <0>         0.1448
     45 H16        -0.6658   -6.0687   13.0113 H         1 <0>         0.1677
     46 H17        -0.1281   -0.0415    5.2165 H         1 <0>         0.3989
     47 H18        -0.2710   -0.0631    6.8903 H         1 <0>         0.3977
@<TRIPOS>BOND
     1    1    2 1
     2    1   30 1
     3    1   31 1
     4    1   32 1
     5    2   11 ar
     6    2    3 ar
     7    3    4 ar
     8    3   33 1
     9    4    5 ar
    10    4   34 1
    11    5   10 ar
    12    5    6 ar
    13    6    7 ar
    14    6   35 1
    15    7    8 ar
    16    7   36 1
    17    8    9 ar
    18    8   37 1
    19    9   10 ar
    20    9   12 1
    21   10   11 ar
    22   12   13 1
    23   12   38 1
    24   13   18 ar
    25   13   14 ar
    26   14   15 ar
    27   14   29 1
    28   15   16 ar
    29   15   19 1
    30   16   17 ar
    31   17   18 ar
    32   17   39 1
    33   19   20 1
    34   19   40 1
    35   20   21 am
    36   20   41 1
    37   21   22 2
    38   21   23 1
    39   23   28 ar
    40   23   24 ar
    41   24   25 ar
    42   24   42 1
    43   25   26 ar
    44   25   43 1
    45   26   27 ar
    46   26   44 1
    47   27   28 ar
    48   27   45 1
    49   29   46 1
    50   29   47 1
@<TRIPOS>MOLECULE
ZINC53372354
   30    31     0     0     0
SMALL
USER_CHARGES

@<TRIPOS>ATOM
      1 C1         -0.0166    1.3746    0.0096 C.2       1 <0>        -0.0594
      2 C2          1.3146    1.8039   -0.0008 C.2       1 <0>        -0.1846
      3 C3          2.1057    0.7039   -0.0143 C.2       1 <0>         0.0796
      4 N1          1.3199   -0.4012   -0.0127 N.pl3     1 <0>        -0.5322
      5 H1          1.6341   -1.3188   -0.0201 H         1 <0>         0.4250
      6 C4          0.0021   -0.0041    0.0020 C.2       1 <0>        -0.0481
      7 C5         -1.1692   -0.8869    0.0089 C.2       1 <0>         0.5973
      8 O1         -2.2894   -0.4115    0.0225 O.2       1 <0>        -0.5199
      9 N2         -1.0049   -2.2245    0.0001 N.am      1 <0>        -0.5222
     10 N3         -2.1237   -3.0678    0.0067 N.am      1 <0>        -0.5151
     11 C6         -1.9594   -4.4055   -0.0022 C.2       1 <0>         0.5814
     12 O2         -0.8398   -4.8806   -0.0158 O.2       1 <0>        -0.5312
     13 C7         -3.1348   -5.2914    0.0047 C.2       1 <0>        -0.2107
     14 C8         -2.9980   -6.7278    0.0013 C.2       1 <0>         0.0572
     15 C9         -4.1513   -7.4258    0.0088 C.2       1 <0>        -0.8054
     16 S1         -5.3939   -6.1519    0.0204 S.3       1 <0>         0.3639
     17 C10        -4.4163   -4.7883    0.0207 C.2       1 <0>        -0.1836
     18 S2         -4.3741   -9.1737    0.0070 S.o2      1 <0>         2.7400
     19 O3         -5.6650   -9.4180   -0.5343 O.2       1 <0>        -0.9507
     20 O4         -3.1944   -9.7329   -0.5541 O.2       1 <0>        -0.9486
     21 N4         -4.4237   -9.6625    1.5885 N.pl3     1 <0>        -1.2473
     22 Br1         1.9053    3.6003    0.0026 Br        1 <0>        -0.0154
     23 H2         -0.8938    2.0044    0.0253 H         1 <0>         0.1622
     24 H3          3.1857    0.7068   -0.0251 H         1 <0>         0.1874
     25 H4         -0.1121   -2.6035   -0.0108 H         1 <0>         0.4284
     26 H5         -3.0166   -2.6889    0.0175 H         1 <0>         0.4329
     27 H6         -2.0331   -7.2128   -0.0072 H         1 <0>         0.1712
     28 H7         -4.7223   -3.7526    0.0299 H         1 <0>         0.2050
     29 H8         -4.3348   -9.0102    2.3008 H         1 <0>         0.4181
     30 H9         -4.5416  -10.6013    1.8024 H         1 <0>         0.4249
@<TRIPOS>BOND
     1    1    6 2
     2    1    2 1
     3    1   23 1
     4    2    3 2
     5    2   22 1
     6    3    4 1
     7    3   24 1
     8    4    5 1
     9    4    6 1
    10    6    7 1
    11    7    8 2
    12    7    9 am
    13    9   10 1
    14    9   25 1
    15   10   11 am
    16   10   26 1
    17   11   12 2
    18   11   13 1
    19   13   17 2
    20   13   14 1
    21   14   15 2
    22   14   27 1
    23   15   16 1
    24   15   18 1
    25   16   17 1
    26   17   28 1
    27   18   19 2
    28   18   20 2
    29   18   21 1
    30   21   29 1
    31   21   30 1
@<TRIPOS>MOLECULE
ZINC13162776
   57    60     0     0     0
SMALL
USER_CHARGES

@<TRIPOS>ATOM
      1 C1         -0.0829    1.6718   -0.1823 C.3       1 <0>         0.0286
      2 O1         -0.1663    0.2465   -0.1217 O.3       1 <0>        -0.3462
      3 C2         -1.3998   -0.2973   -0.1678 C.2       1 <0>         0.5295
      4 O2         -2.3779    0.4204   -0.2571 O.2       1 <0>        -0.4905
      5 C3         -1.5615   -1.7515   -0.1103 C.2       1 <0>        -0.2121
      6 C4         -1.7219   -2.4462    1.1557 C.2       1 <0>        -0.0577
      7 C5         -1.8588   -3.7843    1.0381 C.2       1 <0>        -0.2212
      8 S1         -1.7760   -4.0934   -0.7015 S.3       1 <0>         0.3051
      9 C6         -1.5738   -2.5236   -1.2625 C.2       1 <0>         0.0463
     10 N1         -1.4465   -2.0975   -2.5753 N.am      1 <0>        -0.6124
     11 C7         -1.4814   -2.9940   -3.5811 C.2       1 <0>         0.5431
     12 O3         -1.6241   -4.1735   -3.3375 O.2       1 <0>        -0.4657
     13 C8         -1.3430   -2.5307   -5.0085 C.3       1 <0>        -0.0446
     14 H1         -1.6463   -1.4887   -5.1097 H         1 <0>         0.1608
     15 C9         -2.1342   -3.4203   -5.9473 C.2       1 <0>         0.2808
     16 N2         -3.4257   -3.5492   -5.8736 N.2       1 <0>        -0.6572
     17 C10        -1.3358   -4.1108   -6.9284 C.2       1 <0>        -0.3863
     18 C11         0.0454   -3.9216   -6.9457 C.2       1 <0>         0.2789
     19 S2          0.3714   -2.7788   -5.6171 S.3       1 <0>        -0.0221
     20 N3          0.9513   -4.4880   -7.7959 N.pl3     1 <0>        -0.6640
     21 C12         2.3757   -4.1711   -7.6656 C.3       1 <0>         0.1497
     22 C13         3.1550   -4.9204   -8.7155 C.ar      1 <0>        -0.1215
     23 C14         3.6429   -6.1848   -8.4430 C.ar      1 <0>        -0.0959
     24 C15         4.3578   -6.8721   -9.4060 C.ar      1 <0>        -0.1212
     25 C16         4.5845   -6.2952  -10.6416 C.ar      1 <0>        -0.1034
     26 C17         4.0959   -5.0312  -10.9144 C.ar      1 <0>        -0.1206
     27 C18         3.3773   -4.3456   -9.9529 C.ar      1 <0>        -0.0953
     28 C19        -1.9689   -5.0025   -7.8974 C.2       1 <0>         0.5870
     29 O4         -2.5352   -4.5400   -8.8713 O.2       1 <0>        -0.5343
     30 N4         -1.9263   -6.3370   -7.7133 N.am      1 <0>        -0.8482
     31 C20        -2.0389   -4.7712    2.1500 C.3       1 <0>        -0.0349
     32 C21        -1.6682   -4.0820    3.4714 C.3       1 <0>        -0.1150
     33 C22        -2.3681   -2.7213    3.5340 C.3       1 <0>        -0.1191
     34 C23        -1.7408   -1.7658    2.5165 C.3       1 <0>        -0.0627
     35 H2          0.9625    1.9768   -0.1360 H         1 <0>         0.1048
     36 H3         -0.5226    2.0220   -1.1161 H         1 <0>         0.0613
     37 H4         -0.6249    2.1035    0.6590 H         1 <0>         0.0626
     38 H5         -1.3324   -1.1542   -2.7702 H         1 <0>         0.4205
     39 H6         -3.8999   -4.0708   -6.5399 H         1 <0>         0.3511
     40 H7          0.6518   -5.1002   -8.4861 H         1 <0>         0.4172
     41 H8          2.5232   -3.0994   -7.7994 H         1 <0>         0.0881
     42 H9          2.7242   -4.4650   -6.6756 H         1 <0>         0.0889
     43 H10         3.4658   -6.6355   -7.4777 H         1 <0>         0.1263
     44 H11         4.7395   -7.8597   -9.1929 H         1 <0>         0.1276
     45 H12         5.1436   -6.8320  -11.3937 H         1 <0>         0.1268
     46 H13         4.2733   -4.5804  -11.8796 H         1 <0>         0.1277
     47 H14         2.9924   -3.3596  -10.1672 H         1 <0>         0.1264
     48 H15        -1.5395   -6.7026   -6.9023 H         1 <0>         0.4046
     49 H16        -2.2823   -6.9318   -8.3918 H         1 <0>         0.4026
     50 H17        -3.0778   -5.0992    2.1855 H         1 <0>         0.0839
     51 H18        -1.3873   -5.6299    1.9881 H         1 <0>         0.0828
     52 H19        -1.9938   -4.6989    4.3089 H         1 <0>         0.0749
     53 H20        -0.5885   -3.9397    3.5186 H         1 <0>         0.0693
     54 H21        -3.4267   -2.8479    3.3071 H         1 <0>         0.0681
     55 H22        -2.2611   -2.3049    4.5356 H         1 <0>         0.0715
     56 H23        -0.7215   -1.5263    2.8197 H         1 <0>         0.0812
     57 H24        -2.3322   -0.8519    2.4602 H         1 <0>         0.0740
@<TRIPOS>BOND
     1    1    2 1
     2    1   35 1
     3    1   36 1
     4    1   37 1
     5    2    3 1
     6    3    4 2
     7    3    5 1
     8    5    9 2
     9    5    6 1
    10    6   34 1
    11    6    7 2
    12    7    8 1
    13    7   31 1
    14    8    9 1
    15    9   10 1
    16   10   11 am
    17   10   38 1
    18   11   12 2
    19   11   13 1
    20   13   14 1
    21   13   19 1
    22   13   15 1
    23   15   16 2
    24   15   17 1
    25   16   39 1
    26   17   18 2
    27   17   28 1
    28   18   19 1
    29   18   20 1
    30   20   21 1
    31   20   40 1
    32   21   22 1
    33   21   41 1
    34   21   42 1
    35   22   27 ar
    36   22   23 ar
    37   23   24 ar
    38   23   43 1
    39   24   25 ar
    40   24   44 1
    41   25   26 ar
    42   25   45 1
    43   26   27 ar
    44   26   46 1
    45   27   47 1
    46   28   29 2
    47   28   30 am
    48   30   48 1
    49   30   49 1
    50   31   32 1
    51   31   50 1
    52   31   51 1
    53   32   33 1
    54   32   52 1
    55   32   53 1
    56   33   34 1
    57   33   54 1
    58   33   55 1
    59   34   56 1
    60   34   57 1
@<TRIPOS>MOLECULE
ZINC00797328
   62    66     0     0     0
SMALL
USER_CHARGES
phenacyl 1,3-dioxo-2-(4-phenacyloxycarbonylphenyl)-isoindoline-5-carboxylate
@<TRIPOS>ATOM
      1 C1        -18.4197   -0.5616    0.0950 C.ar      1 <0>        -0.0831
      2 C2        -17.5706   -1.6545    0.0845 C.ar      1 <0>        -0.1303
      3 C3        -16.2041   -1.4704    0.0780 C.ar      1 <0>        -0.0559
      4 C4        -15.6767   -0.1751    0.0825 C.ar      1 <0>        -0.1685
      5 C5        -16.5413    0.9240    0.0994 C.ar      1 <0>        -0.0756
      6 C6        -17.9056    0.7234    0.0995 C.ar      1 <0>        -0.1299
      7 C7        -14.2195    0.0303    0.0755 C.2       1 <0>         0.3967
      8 O1        -13.4727   -0.9250    0.0659 O.2       1 <0>        -0.4230
      9 C8        -13.6554    1.4277    0.0804 C.3       1 <0>         0.0361
     10 O2        -12.2048    1.3641    0.0720 O.3       1 <0>        -0.3347
     11 C9        -11.5411    2.5368    0.0750 C.2       1 <0>         0.5138
     12 O3        -12.1576    3.5838    0.0844 O.2       1 <0>        -0.5010
     13 C10       -10.0663    2.5495    0.0668 C.ar      1 <0>        -0.1365
     14 C11        -9.3760    3.7650    0.0700 C.ar      1 <0>        -0.0278
     15 C12        -7.9993    3.7729    0.0628 C.ar      1 <0>        -0.1520
     16 C13        -7.2953    2.5732    0.0524 C.ar      1 <0>         0.1646
     17 C14        -7.9787    1.3617    0.0436 C.ar      1 <0>        -0.1528
     18 C15        -9.3553    1.3459    0.0564 C.ar      1 <0>        -0.0343
     19 N1         -5.8986    2.5852    0.0452 N.am      1 <0>        -0.5192
     20 C16        -5.1474    3.7010    0.0479 C.2       1 <0>         0.5747
     21 O4         -5.5691    4.8396    0.0566 O.2       1 <0>        -0.4327
     22 C17        -3.7202    3.3079    0.0386 C.ar      1 <0>        -0.1012
     23 C18        -2.5260    4.0111    0.0364 C.ar      1 <0>        -0.0496
     24 C19        -1.3223    3.3273    0.0322 C.ar      1 <0>        -0.0283
     25 C20        -1.3052    1.9323    0.0187 C.ar      1 <0>        -0.0996
     26 C21        -2.5055    1.2153    0.0205 C.ar      1 <0>         0.0226
     27 C22        -3.7098    1.8976    0.0304 C.ar      1 <0>        -0.1486
     28 C23        -5.1285    1.4826    0.0350 C.2       1 <0>         0.5793
     29 O5         -5.5315    0.3369    0.0310 O.2       1 <0>        -0.4337
     30 C24        -0.0144    1.2103    0.0087 C.2       1 <0>         0.5118
     31 O6          0.0021   -0.0041    0.0020 O.2       1 <0>        -0.4870
     32 O7          1.1428    1.8995    0.0013 O.3       1 <0>        -0.3322
     33 C25         2.3711    1.1254   -0.0145 C.3       1 <0>         0.0366
     34 C26         3.5536    2.0596   -0.0208 C.2       1 <0>         0.3982
     35 O8          3.3784    3.2593   -0.0127 O.2       1 <0>        -0.4234
     36 C27         4.9210    1.5156   -0.0368 C.ar      1 <0>        -0.1701
     37 C28         5.1272    0.1324   -0.0403 C.ar      1 <0>        -0.0755
     38 C29         6.4113   -0.3695   -0.0602 C.ar      1 <0>        -0.1296
     39 C30         7.4947    0.4918   -0.0664 C.ar      1 <0>        -0.0819
     40 C31         7.2990    1.8619   -0.0572 C.ar      1 <0>        -0.1301
     41 C32         6.0209    2.3793   -0.0427 C.ar      1 <0>        -0.0551
     42 H1        -19.4891   -0.7123    0.1001 H         1 <0>         0.1305
     43 H2        -17.9794   -2.6541    0.0810 H         1 <0>         0.1327
     44 H3        -15.5427   -2.3242    0.0698 H         1 <0>         0.1367
     45 H4        -16.1416    1.9273    0.1079 H         1 <0>         0.1326
     46 H5        -18.5746    1.5712    0.1077 H         1 <0>         0.1327
     47 H6        -13.9632    1.9085    0.9014 H         1 <0>         0.0959
     48 H7        -14.0008    1.9620   -0.8046 H         1 <0>         0.1092
     49 H8         -9.9220    4.6969    0.0777 H         1 <0>         0.1496
     50 H9         -7.4653    4.7116    0.0649 H         1 <0>         0.1667
     51 H10        -7.4288    0.4323    0.0307 H         1 <0>         0.1661
     52 H11        -9.8853    0.4049    0.0536 H         1 <0>         0.1518
     53 H12        -2.5344    5.0911    0.0426 H         1 <0>         0.1593
     54 H13        -0.3922    3.8762    0.0353 H         1 <0>         0.1656
     55 H14        -2.4931    0.1354    0.0146 H         1 <0>         0.1622
     56 H15         2.4095    0.5445    0.7986 H         1 <0>         0.0981
     57 H16         2.3960    0.5017   -0.9082 H         1 <0>         0.1121
     58 H17         4.2828   -0.5409   -0.0317 H         1 <0>         0.1326
     59 H18         6.5722   -1.4374   -0.0671 H         1 <0>         0.1331
     60 H19         8.4982    0.0926   -0.0781 H         1 <0>         0.1309
     61 H20         8.1495    2.5275   -0.0617 H         1 <0>         0.1332
     62 H21         5.8698    3.4486   -0.0355 H         1 <0>         0.1370
@<TRIPOS>BOND
     1    1    6 ar
     2    1    2 ar
     3    1   42 1
     4    2    3 ar
     5    2   43 1
     6    3    4 ar
     7    3   44 1
     8    4    5 ar
     9    4    7 1
    10    5    6 ar
    11    5   45 1
    12    6   46 1
    13    7    8 2
    14    7    9 1
    15    9   10 1
    16    9   47 1
    17    9   48 1
    18   10   11 1
    19   11   12 2
    20   11   13 1
    21   13   18 ar
    22   13   14 ar
    23   14   15 ar
    24   14   49 1
    25   15   16 ar
    26   15   50 1
    27   16   17 ar
    28   16   19 1
    29   17   18 ar
    30   17   51 1
    31   18   52 1
    32   19   28 am
    33   19   20 am
    34   20   21 2
    35   20   22 1
    36   22   27 ar
    37   22   23 ar
    38   23   24 ar
    39   23   53 1
    40   24   25 ar
    41   24   54 1
    42   25   26 ar
    43   25   30 1
    44   26   27 ar
    45   26   55 1
    46   27   28 1
    47   28   29 2
    48   30   31 2
    49   30   32 1
    50   32   33 1
    51   33   34 1
    52   33   56 1
    53   33   57 1
    54   34   35 2
    55   34   36 1
    56   36   41 ar
    57   36   37 ar
    58   37   38 ar
    59   37   58 1
    60   38   39 ar
    61   38   59 1
    62   39   40 ar
    63   39   60 1
    64   40   41 ar
    65   40   61 1
    66   41   62 1
@<TRIPOS>MOLECULE
ZINC20112181
   61    65     0     0     0
SMALL
USER_CHARGES
3-(2,1,3-benzoxadiazol-4-ylsulfonyl)-1-[4-[(S)-(4-chlorophenyl)-phenyl-methyl]piperazin-1-yl]propan-1-one
@<TRIPOS>ATOM
      1 C1          0.1167    1.8403  -10.6686 C.ar      1 <0>        -0.1159
      2 C2          0.7592    3.0334  -10.3955 C.ar      1 <0>        -0.1198
      3 C3          0.4854    3.7133   -9.2234 C.ar      1 <0>        -0.1119
      4 C4         -0.4316    3.2005   -8.3250 C.ar      1 <0>        -0.0810
      5 C5         -1.0705    2.0050   -8.5959 C.ar      1 <0>        -0.0901
      6 C6         -0.7999    1.3273   -9.7700 C.ar      1 <0>        -0.1224
      7 C7         -0.7301    3.9417   -7.0473 C.3       1 <0>         0.1688
      8 H1          0.0607    4.6786   -6.8431 H         1 <0>         0.0606
      9 C8         -2.0645    4.6317   -7.1668 C.ar      1 <0>        -0.0738
     10 C9         -3.2325    3.8979   -7.0752 C.ar      1 <0>        -0.0771
     11 C10        -4.4567    4.5310   -7.1792 C.ar      1 <0>        -0.1128
     12 C11        -4.5129    5.8978   -7.3863 C.ar      1 <0>        -0.0317
     13 C12        -3.3436    6.6308   -7.4835 C.ar      1 <0>        -0.1102
     14 C13        -2.1200    5.9974   -7.3738 C.ar      1 <0>        -0.0996
     15 Cl1        -6.0501    6.6926   -7.5246 Cl        1 <0>        -0.0692
     16 N1         -0.7688    2.9915   -5.9276 N.3       1 <0>        -0.5280
     17 C14         0.4947    2.2495   -5.8230 C.3       1 <0>         0.0399
     18 C15         0.3509    1.1489   -4.7664 C.3       1 <0>         0.1165
     19 N2         -0.1157    1.7621   -3.5136 N.am      1 <0>        -0.6124
     20 C16        -1.3035    2.6282   -3.5629 C.3       1 <0>         0.1056
     21 C17        -1.0911    3.6752   -4.6679 C.3       1 <0>         0.0369
     22 C18         0.5248    1.5321   -2.3503 C.2       1 <0>         0.5273
     23 O1          1.4998    0.8112   -2.3272 O.2       1 <0>        -0.5316
     24 C19         0.0295    2.1707   -1.0783 C.3       1 <0>        -0.1382
     25 C20         0.9273    1.7497    0.0869 C.3       1 <0>        -0.5912
     26 S1          0.3311    2.5184    1.6180 S.o2      1 <0>         2.4958
     27 O2          0.5238    3.9253    1.5665 O.2       1 <0>        -0.9271
     28 O3         -0.9298    1.9727    1.9808 O.2       1 <0>        -0.9144
     29 C21         1.4399    1.9581    2.8675 C.ar      1 <0>        -0.6228
     30 C22         2.2440    2.8382    3.5135 C.ar      1 <0>         0.0559
     31 C23         3.1378    2.4306    4.5119 C.ar      1 <0>        -0.1206
     32 C24         3.2490    1.1328    4.8890 C.ar      1 <0>         0.0009
     33 C25         2.4456    0.1599    4.2631 C.ar      1 <0>         0.0004
     34 C26         1.4949    0.5927    3.2085 C.ar      1 <0>         0.0672
     35 N3          0.9290   -0.5330    2.8493 N.2       1 <0>        -0.3395
     36 O4          1.3943   -1.4401    3.5097 O.3       1 <0>         0.3924
     37 N4          2.2457   -1.1336    4.3201 N.2       1 <0>        -0.3247
     38 H2          0.3307    1.3091  -11.5843 H         1 <0>         0.1213
     39 H3          1.4753    3.4342  -11.0975 H         1 <0>         0.1221
     40 H4          0.9875    4.6453   -9.0098 H         1 <0>         0.1188
     41 H5         -1.7836    1.6021   -7.8919 H         1 <0>         0.1293
     42 H6         -1.3020    0.3953   -9.9836 H         1 <0>         0.1225
     43 H7         -3.1884    2.8303   -6.9180 H         1 <0>         0.1391
     44 H8         -5.3691    3.9583   -7.1032 H         1 <0>         0.1340
     45 H9         -3.3868    7.6977   -7.6455 H         1 <0>         0.1337
     46 H10        -1.2072    6.5695   -7.4500 H         1 <0>         0.1292
     47 H11         0.7353    1.7962   -6.7960 H         1 <0>         0.0957
     48 H12         1.3010    2.9379   -5.5298 H         1 <0>         0.0409
     49 H13        -0.3780    0.4013   -5.1125 H         1 <0>         0.0793
     50 H14         1.3254    0.6643   -4.6068 H         1 <0>         0.0986
     51 H15        -2.1922    2.0194   -3.7856 H         1 <0>         0.0861
     52 H16        -1.4346    3.1265   -2.5910 H         1 <0>         0.0920
     53 H17        -0.2613    4.3416   -4.3897 H         1 <0>         0.0439
     54 H18        -2.0094    4.2670   -4.7964 H         1 <0>         0.0960
     55 H19         0.0547    3.2654   -1.1837 H         1 <0>         0.1142
     56 H20        -1.0027    1.8449   -0.8822 H         1 <0>         0.1160
     57 H21         0.9021    0.6550    0.1922 H         1 <0>         0.1481
     58 H22         1.9595    2.0755   -0.1092 H         1 <0>         0.1473
     59 H23         2.1941    3.8845    3.2502 H         1 <0>         0.1703
     60 H24         3.7565    3.1718    4.9959 H         1 <0>         0.1609
     61 H25         3.9475    0.8478    5.6618 H         1 <0>         0.1586
@<TRIPOS>BOND
     1    1    6 ar
     2    1    2 ar
     3    1   38 1
     4    2    3 ar
     5    2   39 1
     6    3    4 ar
     7    3   40 1
     8    4    5 ar
     9    4    7 1
    10    5    6 ar
    11    5   41 1
    12    6   42 1
    13    7    8 1
    14    7    9 1
    15    7   16 1
    16    9   14 ar
    17    9   10 ar
    18   10   11 ar
    19   10   43 1
    20   11   12 ar
    21   11   44 1
    22   12   13 ar
    23   12   15 1
    24   13   14 ar
    25   13   45 1
    26   14   46 1
    27   16   21 1
    28   16   17 1
    29   17   18 1
    30   17   47 1
    31   17   48 1
    32   18   19 1
    33   18   49 1
    34   18   50 1
    35   19   20 1
    36   19   22 am
    37   20   21 1
    38   20   51 1
    39   20   52 1
    40   21   53 1
    41   21   54 1
    42   22   23 2
    43   22   24 1
    44   24   25 1
    45   24   55 1
    46   24   56 1
    47   25   26 1
    48   25   57 1
    49   25   58 1
    50   26   27 2
    51   26   28 2
    52   26   29 1
    53   29   34 ar
    54   29   30 ar
    55   30   31 ar
    56   30   59 1
    57   31   32 ar
    58   31   60 1
    59   32   33 ar
    60   32   61 1
    61   33   37 2
    62   33   34 ar
    63   34   35 2
    64   35   36 1
    65   36   37 1
@<TRIPOS>MOLECULE
ZINC35544742
   72    76     0     0     0
SMALL
USER_CHARGES

@<TRIPOS>ATOM
      1 C1          1.9969    1.7258    0.6790 C.3       1 <0>        -0.1524
      2 C2          1.4524    0.3246    0.3944 C.3       1 <0>         0.0590
      3 O1          2.1383   -0.2341   -0.7279 O.3       1 <0>        -0.3504
      4 C3          1.7764   -1.4688   -1.1103 C.2       1 <0>         0.4686
      5 O2          0.9062   -2.0558   -0.5120 O.2       1 <0>        -0.5003
      6 C4          2.4555   -2.1229   -2.2859 C.3       1 <0>        -0.0928
      7 H1          3.5233   -2.2118   -2.0859 H         1 <0>         0.1129
      8 C5          2.2398   -1.2713   -3.5391 C.3       1 <0>        -0.1129
      9 C6          2.9567   -1.9177   -4.7267 C.3       1 <0>        -0.1334
     10 C7          2.3658   -3.3083   -4.9795 C.3       1 <0>         0.0978
     11 N1          2.4380   -4.0860   -3.7350 N.am      1 <0>        -0.6123
     12 C8          1.8596   -3.5161   -2.5105 C.3       1 <0>         0.1308
     13 C9          3.0238   -5.2997   -3.7168 C.2       1 <0>         0.5232
     14 O3          3.1569   -5.8931   -2.6675 O.2       1 <0>        -0.5109
     15 C10         3.5133   -5.9195   -5.0003 C.3       1 <0>        -0.1237
     16 H2          3.9448   -5.1450   -5.6344 H         1 <0>         0.1172
     17 C11         2.3399   -6.5747   -5.7270 C.3       1 <0>        -0.0575
     18 C12         1.8094   -7.6981   -4.8739 C.ar      1 <0>        -0.1703
     19 C13         0.4737   -8.0462   -4.9572 C.ar      1 <0>         0.0004
     20 C14        -0.0249   -9.0683   -4.1710 C.ar      1 <0>        -0.1136
     21 C15         0.8104   -9.7431   -3.2995 C.ar      1 <0>        -0.0053
     22 C16         2.1452   -9.4019   -3.2167 C.ar      1 <0>        -0.1994
     23 C17         2.6508   -8.3765   -4.0113 C.ar      1 <0>         0.2903
     24 N2          4.0199   -8.0706   -3.9224 N.pl3     1 <0>        -0.5731
     25 C18         4.5818   -6.9702   -4.6824 C.3       1 <0>         0.1683
     26 H3          4.9602   -7.3650   -5.6253 H         1 <0>         0.0764
     27 C19         5.7369   -6.2796   -3.9761 C.3       1 <0>         0.1506
     28 N3          6.5217   -7.1817   -3.1572 N.pl3     1 <0>        -0.6499
     29 C20         5.9182   -8.2163   -2.3340 C.3       1 <0>         0.1447
     30 C21         4.8304   -8.9480   -3.0800 C.3       1 <0>         0.1034
     31 C22         7.9153   -7.0518   -3.1596 C.ar      1 <0>         0.1272
     32 C23         8.5379   -6.2204   -2.2400 C.ar      1 <0>        -0.0833
     33 C24         9.9143   -6.0942   -2.2440 C.ar      1 <0>        -0.1505
     34 C25        10.6734   -6.7949   -3.1629 C.ar      1 <0>        -0.0805
     35 C26        10.0597   -7.6255   -4.0826 C.ar      1 <0>        -0.2058
     36 C27         8.6813   -7.7615   -4.0817 C.ar      1 <0>         0.1199
     37 O4          8.0768   -8.5821   -4.9823 O.3       1 <0>        -0.3060
     38 C28         8.9253   -9.2782   -5.8975 C.3       1 <0>         0.0254
     39 N4         -1.4545   -9.4404   -4.2619 N.pl3     1 <0>         0.0478
     40 O5         -2.1854   -8.8508   -5.0233 O.2       1 <0>        -0.1781
     41 O6         -1.8913  -10.3341   -3.5748 O.3       1 <0>        -0.1759
     42 H4          3.0627    1.6638    0.8986 H         1 <0>         0.0670
     43 H5          1.8421    2.3600   -0.1939 H         1 <0>         0.0673
     44 H6          1.4737    2.1520    1.5350 H         1 <0>         0.0811
     45 H7          1.6073   -0.3096    1.2673 H         1 <0>         0.0685
     46 H8          0.3866    0.3866    0.1748 H         1 <0>         0.0689
     47 H9          1.1731   -1.2028   -3.7524 H         1 <0>         0.0735
     48 H10         2.6415   -0.2718   -3.3726 H         1 <0>         0.0843
     49 H11         2.8222   -1.2985   -5.6137 H         1 <0>         0.0876
     50 H12         4.0198   -2.0090   -4.5041 H         1 <0>         0.0732
     51 H13         1.3256   -3.2123   -5.2906 H         1 <0>         0.0766
     52 H14         2.9375   -3.8120   -5.7589 H         1 <0>         0.0906
     53 H15         2.0973   -4.1565   -1.6611 H         1 <0>         0.1014
     54 H16         0.7779   -3.4375   -2.6201 H         1 <0>         0.0796
     55 H17         1.5538   -5.8376   -5.8910 H         1 <0>         0.0901
     56 H18         2.6780   -6.9710   -6.6845 H         1 <0>         0.0959
     57 H19        -0.1802   -7.5192   -5.6363 H         1 <0>         0.1489
     58 H20         0.4178  -10.5383   -2.6831 H         1 <0>         0.1498
     59 H21         2.7968   -9.9294   -2.5358 H         1 <0>         0.1491
     60 H22         6.3881   -5.8301   -4.7258 H         1 <0>         0.0724
     61 H23         5.3374   -5.4881   -3.3420 H         1 <0>         0.0484
     62 H24         6.6874   -8.9289   -2.0365 H         1 <0>         0.0778
     63 H25         5.4935   -7.7584   -1.4406 H         1 <0>         0.0518
     64 H26         4.1797   -9.4373   -2.3552 H         1 <0>         0.0907
     65 H27         5.2885   -9.7120   -3.7081 H         1 <0>         0.0645
     66 H28         7.9473   -5.6717   -1.5213 H         1 <0>         0.1282
     67 H29        10.3980   -5.4464   -1.5279 H         1 <0>         0.1254
     68 H30        11.7486   -6.6930   -3.1627 H         1 <0>         0.1255
     69 H31        10.6556   -8.1713   -4.7990 H         1 <0>         0.1283
     70 H32         9.4891   -8.5577   -6.4901 H         1 <0>         0.0544
     71 H33         9.6166   -9.9118   -5.3419 H         1 <0>         0.0547
     72 H34         8.3175   -9.8960   -6.5585 H         1 <0>         0.0987
@<TRIPOS>BOND
     1    1    2 1
     2    1   42 1
     3    1   43 1
     4    1   44 1
     5    2    3 1
     6    2   45 1
     7    2   46 1
     8    3    4 1
     9    4    5 2
    10    4    6 1
    11    6    7 1
    12    6   12 1
    13    6    8 1
    14    8    9 1
    15    8   47 1
    16    8   48 1
    17    9   10 1
    18    9   49 1
    19    9   50 1
    20   10   11 1
    21   10   51 1
    22   10   52 1
    23   11   12 1
    24   11   13 am
    25   12   53 1
    26   12   54 1
    27   13   14 2
    28   13   15 1
    29   15   16 1
    30   15   25 1
    31   15   17 1
    32   17   18 1
    33   17   55 1
    34   17   56 1
    35   18   23 ar
    36   18   19 ar
    37   19   20 ar
    38   19   57 1
    39   20   21 ar
    40   20   39 1
    41   21   22 ar
    42   21   58 1
    43   22   23 ar
    44   22   59 1
    45   23   24 1
    46   24   30 1
    47   24   25 1
    48   25   26 1
    49   25   27 1
    50   27   28 1
    51   27   60 1
    52   27   61 1
    53   28   29 1
    54   28   31 1
    55   29   30 1
    56   29   62 1
    57   29   63 1
    58   30   64 1
    59   30   65 1
    60   31   36 ar
    61   31   32 ar
    62   32   33 ar
    63   32   66 1
    64   33   34 ar
    65   33   67 1
    66   34   35 ar
    67   34   68 1
    68   35   36 ar
    69   35   69 1
    70   36   37 1
    71   37   38 1
    72   38   70 1
    73   38   71 1
    74   38   72 1
    75   39   40 2
    76   39   41 1
@<TRIPOS>MOLECULE
ZINC38648430
   68    72     0     0     0
SMALL
USER_CHARGES

@<TRIPOS>ATOM
      1 C1         -0.0187    1.5258    0.0104 C.3       1 <0>        -0.1547
      2 C2          0.0021   -0.0041    0.0020 C.3       1 <0>        -0.1257
      3 C3          0.7421   -0.5109    1.2415 C.3       1 <0>        -0.1199
      4 C4          0.7628   -2.0407    1.2331 C.3       1 <0>        -0.1170
      5 C5          1.5028   -2.5476    2.4727 C.3       1 <0>        -0.1189
      6 C6          1.5236   -4.0774    2.4642 C.3       1 <0>         0.0572
      7 O1          2.2147   -4.5508    3.6219 O.3       1 <0>        -0.3009
      8 C7          2.3235   -5.8985    3.7680 C.ar      1 <0>         0.1178
      9 C8          1.7821   -6.7461    2.8149 C.ar      1 <0>        -0.1735
     10 C9          1.8940   -8.1159    2.9647 C.ar      1 <0>        -0.0974
     11 C10         2.5452   -8.6432    4.0644 C.ar      1 <0>        -0.1044
     12 C11         3.0872   -7.8031    5.0191 C.ar      1 <0>        -0.1422
     13 C12         2.9839   -6.4292    4.8719 C.ar      1 <0>         0.1048
     14 O2          3.5218   -5.6013    5.8072 O.3       1 <0>        -0.3027
     15 C13         4.1850   -6.2162    6.9135 C.3       1 <0>         0.0236
     16 C14         2.6639  -10.1371    4.2229 C.3       1 <0>         0.2335
     17 H1          2.8824  -10.3885    5.2607 H         1 <0>         0.1259
     18 C15         3.7358  -10.6666    3.3278 C.2       1 <0>        -0.2439
     19 C16         5.1729  -10.3795    3.2668 C.2       1 <0>         0.4571
     20 O3          5.7611   -9.7347    4.1167 O.2       1 <0>        -0.4321
     21 C17         5.8426  -10.9503    2.0709 C.ar      1 <0>        -0.2128
     22 C18         7.1577  -10.6021    1.7640 C.ar      1 <0>        -0.0316
     23 C19         7.7586  -11.1323    0.6564 C.ar      1 <0>        -0.1413
     24 C20         7.0642  -12.0133   -0.1609 C.ar      1 <0>        -0.0523
     25 C21         5.7659  -12.3690    0.1276 C.ar      1 <0>        -0.1347
     26 C22         5.1315  -11.8443    1.2537 C.ar      1 <0>         0.1407
     27 O4          3.8594  -12.2154    1.5240 O.3       1 <0>        -0.1802
     28 C23         3.1572  -11.5523    2.4639 C.2       1 <0>         0.0894
     29 C24         1.7162  -11.6168    2.7643 C.2       1 <0>         0.5699
     30 O5          0.9125  -12.3105    2.1736 O.2       1 <0>        -0.4751
     31 N1          1.4186  -10.7940    3.7927 N.am      1 <0>        -0.5870
     32 C25         0.0912  -10.5897    4.3778 C.3       1 <0>         0.1775
     33 H2          0.1595   -9.8588    5.1836 H         1 <0>         0.1272
     34 C26        -0.8689  -10.0682    3.2957 C.3       1 <0>        -0.1550
     35 C27        -2.3192  -10.1591    3.8504 C.3       1 <0>        -0.5687
     36 S1         -2.2504  -11.7880    4.7088 S.o2      1 <0>         2.3763
     37 O6         -2.8740  -11.6674    5.9799 O.2       1 <0>        -0.9303
     38 O7         -2.6819  -12.8020    3.8117 O.2       1 <0>        -0.9204
     39 C28        -0.4328  -11.9314    4.9441 C.3       1 <0>        -0.6088
     40 H3          1.0039    1.9031    0.0027 H         1 <0>         0.0540
     41 H4         -0.5459    1.8868   -0.8726 H         1 <0>         0.0542
     42 H5         -0.5289    1.8773    0.9072 H         1 <0>         0.0541
     43 H6         -1.0205   -0.3814    0.0098 H         1 <0>         0.0611
     44 H7          0.5123   -0.3556   -0.8948 H         1 <0>         0.0610
     45 H8          1.7647   -0.1336    1.2338 H         1 <0>         0.0638
     46 H9          0.2319   -0.1594    2.1383 H         1 <0>         0.0639
     47 H10        -0.2598   -2.4180    1.2409 H         1 <0>         0.0651
     48 H11         1.2730   -2.3923    0.3363 H         1 <0>         0.0650
     49 H12         2.5254   -2.1703    2.4649 H         1 <0>         0.0749
     50 H13         0.9926   -2.1961    3.3695 H         1 <0>         0.0751
     51 H14         0.5010   -4.4547    2.4720 H         1 <0>         0.0625
     52 H15         2.0337   -4.4289    1.5675 H         1 <0>         0.0620
     53 H16         1.2723   -6.3368    1.9553 H         1 <0>         0.1384
     54 H17         1.4716   -8.7755    2.2211 H         1 <0>         0.1231
     55 H18         3.5950   -8.2176    5.8774 H         1 <0>         0.1421
     56 H19         3.4807   -6.8493    7.4531 H         1 <0>         0.0557
     57 H20         5.0135   -6.8234    6.5486 H         1 <0>         0.0592
     58 H21         4.5668   -5.4451    7.5826 H         1 <0>         0.1028
     59 H22         7.6991   -9.9160    2.3985 H         1 <0>         0.1451
     60 H23         8.7770  -10.8645    0.4164 H         1 <0>         0.1406
     61 H24         7.5482  -12.4247   -1.0344 H         1 <0>         0.1448
     62 H25         5.2381  -13.0549   -0.5184 H         1 <0>         0.1484
     63 H26        -0.6293   -9.0314    3.0596 H         1 <0>         0.1107
     64 H27        -0.7790  -10.6800    2.3980 H         1 <0>         0.1058
     65 H28        -2.5238   -9.3515    4.5532 H         1 <0>         0.1446
     66 H29        -3.0504  -10.1701    3.0421 H         1 <0>         0.1491
     67 H30        -0.0345  -12.7724    4.3764 H         1 <0>         0.1515
     68 H31        -0.1872  -12.0267    6.0018 H         1 <0>         0.1518
@<TRIPOS>BOND
     1    1    2 1
     2    1   40 1
     3    1   41 1
     4    1   42 1
     5    2    3 1
     6    2   43 1
     7    2   44 1
     8    3    4 1
     9    3   45 1
    10    3   46 1
    11    4    5 1
    12    4   47 1
    13    4   48 1
    14    5    6 1
    15    5   49 1
    16    5   50 1
    17    6    7 1
    18    6   51 1
    19    6   52 1
    20    7    8 1
    21    8   13 ar
    22    8    9 ar
    23    9   10 ar
    24    9   53 1
    25   10   11 ar
    26   10   54 1
    27   11   12 ar
    28   11   16 1
    29   12   13 ar
    30   12   55 1
    31   13   14 1
    32   14   15 1
    33   15   56 1
    34   15   57 1
    35   15   58 1
    36   16   17 1
    37   16   31 1
    38   16   18 1
    39   18   28 2
    40   18   19 1
    41   19   20 2
    42   19   21 1
    43   21   26 ar
    44   21   22 ar
    45   22   23 ar
    46   22   59 1
    47   23   24 ar
    48   23   60 1
    49   24   25 ar
    50   24   61 1
    51   25   26 ar
    52   25   62 1
    53   26   27 1
    54   27   28 1
    55   28   29 1
    56   29   30 2
    57   29   31 am
    58   31   32 1
    59   32   33 1
    60   32   39 1
    61   32   34 1
    62   34   35 1
    63   34   63 1
    64   34   64 1
    65   35   36 1
    66   35   65 1
    67   35   66 1
    68   36   37 2
    69   36   38 2
    70   36   39 1
    71   39   67 1
    72   39   68 1
@<TRIPOS>MOLECULE
ZINC40061555
   66    70     0     0     0
SMALL
USER_CHARGES

@<TRIPOS>ATOM
      1 C1         -0.0187    1.5258    0.0104 C.3       1 <0>        -0.1516
      2 C2          0.0021   -0.0041    0.0020 C.3       1 <0>         0.0523
      3 O1         -1.3386   -0.4987    0.0122 O.3       1 <0>        -0.3010
      4 C3         -1.4984   -1.8492    0.0064 C.ar      1 <0>         0.1188
      5 C4         -0.3893   -2.6797   -0.0028 C.ar      1 <0>        -0.1713
      6 C5         -0.5535   -4.0523   -0.0082 C.ar      1 <0>        -0.0953
      7 C6         -1.8231   -4.5996   -0.0047 C.ar      1 <0>        -0.0940
      8 C7         -2.9339   -3.7768    0.0040 C.ar      1 <0>        -0.1269
      9 C8         -2.7762   -2.4001    0.0157 C.ar      1 <0>         0.1105
     10 O2         -3.8679   -1.5893    0.0304 O.3       1 <0>        -0.3012
     11 C9         -5.1479   -2.2246    0.0392 C.3       1 <0>         0.0511
     12 C10        -6.2459   -1.1592    0.0553 C.3       1 <0>        -0.1510
     13 C11        -1.9964   -6.0966   -0.0111 C.3       1 <0>         0.2397
     14 H1         -2.9887   -6.3614    0.3541 H         1 <0>         0.1351
     15 C12        -1.7949   -6.6328   -1.3903 C.2       1 <0>        -0.2256
     16 C13        -2.5185   -6.3803   -2.6404 C.2       1 <0>         0.4576
     17 O3         -3.3528   -5.5008   -2.7624 O.2       1 <0>        -0.4182
     18 C14        -2.1374   -7.2982   -3.7436 C.ar      1 <0>        -0.2209
     19 C15        -2.8703   -7.3194   -4.9299 C.ar      1 <0>         0.0139
     20 C16        -2.5098   -8.1738   -5.9344 C.ar      1 <0>        -0.1476
     21 C17        -1.4199   -9.0184   -5.7757 C.ar      1 <0>        -0.0105
     22 C18        -0.6840   -9.0093   -4.6122 C.ar      1 <0>        -0.1460
     23 C19        -1.0299   -8.1449   -3.5734 C.ar      1 <0>         0.1513
     24 O4         -0.2874   -8.1459   -2.4429 O.3       1 <0>        -0.1767
     25 C20        -0.7346   -7.4939   -1.3515 C.2       1 <0>         0.0919
     26 C21        -0.2311   -7.5448    0.0312 C.2       1 <0>         0.5753
     27 O5          0.7060   -8.2214    0.4061 O.2       1 <0>        -0.4449
     28 N1         -0.9624   -6.7312    0.8227 N.am      1 <0>        -0.4905
     29 C22        -0.7725   -6.5271    2.1832 C.2       1 <0>         0.2957
     30 N2         -1.4401   -5.7571    3.0319 N.2       1 <0>        -0.2866
     31 N3         -1.1305   -5.6884    4.2526 N.2       1 <0>        -0.2499
     32 C23        -0.1268   -6.3752    4.7620 C.2       1 <0>         0.0656
     33 S1          0.4388   -7.2342    3.2963 S.3       1 <0>         0.0408
     34 C24         0.3926   -6.4268    6.1757 C.3       1 <0>         0.0034
     35 C25         0.8350   -5.0273    6.6078 C.3       1 <0>        -0.1439
     36 C26        -0.7146   -6.9223    7.1081 C.3       1 <0>        -0.1440
     37 C27        -1.0370   -9.9567   -6.8910 C.3       1 <0>        -0.1238
     38 C28        -4.0544   -6.4036   -5.1041 C.3       1 <0>        -0.1321
     39 H2          1.0039    1.9031    0.0027 H         1 <0>         0.0787
     40 H3         -0.5459    1.8868   -0.8726 H         1 <0>         0.0673
     41 H4         -0.5289    1.8773    0.9072 H         1 <0>         0.0675
     42 H5          0.5123   -0.3556   -0.8948 H         1 <0>         0.0614
     43 H6          0.5293   -0.3651    0.8851 H         1 <0>         0.0612
     44 H7          0.6036   -2.2546   -0.0062 H         1 <0>         0.1367
     45 H8          0.3118   -4.6985   -0.0154 H         1 <0>         0.1142
     46 H9         -3.9246   -4.2069    0.0063 H         1 <0>         0.1403
     47 H10        -5.2534   -2.8416   -0.8531 H         1 <0>         0.0646
     48 H11        -5.2364   -2.8511    0.9267 H         1 <0>         0.0623
     49 H12        -7.2222   -1.6438    0.0620 H         1 <0>         0.0786
     50 H13        -6.1404   -0.5422    0.9476 H         1 <0>         0.0664
     51 H14        -6.1573   -0.5327   -0.8322 H         1 <0>         0.0664
     52 H15        -3.0752   -8.1920   -6.8544 H         1 <0>         0.1403
     53 H16         0.1613   -9.6725   -4.5033 H         1 <0>         0.1479
     54 H17         1.2420   -7.1080    6.2260 H         1 <0>         0.1006
     55 H18        -0.0144   -4.3461    6.5574 H         1 <0>         0.0698
     56 H19         1.2107   -5.0646    7.6303 H         1 <0>         0.0747
     57 H20         1.6238   -4.6743    5.9435 H         1 <0>         0.0594
     58 H21        -0.3389   -6.9596    8.1306 H         1 <0>         0.0747
     59 H22        -1.5640   -6.2410    7.0577 H         1 <0>         0.0698
     60 H23        -1.0297   -7.9193    6.8002 H         1 <0>         0.0596
     61 H24        -0.3283   -9.4618   -7.5550 H         1 <0>         0.0837
     62 H25        -0.5776  -10.8517   -6.4713 H         1 <0>         0.0764
     63 H26        -1.9282  -10.2354   -7.4534 H         1 <0>         0.0776
     64 H27        -3.7236   -5.4608   -5.5396 H         1 <0>         0.0842
     65 H28        -4.7829   -6.8734   -5.7650 H         1 <0>         0.0718
     66 H29        -4.5132   -6.2144   -4.1336 H         1 <0>         0.0945
@<TRIPOS>BOND
     1    1    2 1
     2    1   39 1
     3    1   40 1
     4    1   41 1
     5    2    3 1
     6    2   42 1
     7    2   43 1
     8    3    4 1
     9    4    9 ar
    10    4    5 ar
    11    5    6 ar
    12    5   44 1
    13    6    7 ar
    14    6   45 1
    15    7    8 ar
    16    7   13 1
    17    8    9 ar
    18    8   46 1
    19    9   10 1
    20   10   11 1
    21   11   12 1
    22   11   47 1
    23   11   48 1
    24   12   49 1
    25   12   50 1
    26   12   51 1
    27   13   14 1
    28   13   28 1
    29   13   15 1
    30   15   25 2
    31   15   16 1
    32   16   17 2
    33   16   18 1
    34   18   23 ar
    35   18   19 ar
    36   19   20 ar
    37   19   38 1
    38   20   21 ar
    39   20   52 1
    40   21   22 ar
    41   21   37 1
    42   22   23 ar
    43   22   53 1
    44   23   24 1
    45   24   25 1
    46   25   26 1
    47   26   27 2
    48   26   28 am
    49   28   29 1
    50   29   33 1
    51   29   30 2
    52   30   31 1
    53   31   32 2
    54   32   33 1
    55   32   34 1
    56   34   35 1
    57   34   36 1
    58   34   54 1
    59   35   55 1
    60   35   56 1
    61   35   57 1
    62   36   58 1
    63   36   59 1
    64   36   60 1
    65   37   61 1
    66   37   62 1
    67   37   63 1
    68   38   64 1
    69   38   65 1
    70   38   66 1
@<TRIPOS>MOLECULE
ZINC67336948
   74    77     0     0     0
SMALL
USER_CHARGES

@<TRIPOS>ATOM
      1 C1          0.6849    0.1338   -4.4642 C.3       1 <0>        -0.1528
      2 C2          0.3607   -1.3611   -4.4365 C.3       1 <0>        -0.1239
      3 C3         -0.7781   -1.6178   -3.4474 C.3       1 <0>        -0.1174
      4 C4         -1.1023   -3.1128   -3.4197 C.3       1 <0>         0.0551
      5 N1         -2.1957   -3.3592   -2.4701 N.3       1 <0>        -0.5379
      6 C5         -3.4425   -2.7322   -2.9285 C.3       1 <0>         0.0359
      7 C6         -4.5057   -2.8556   -1.8319 C.3       1 <0>         0.1188
      8 N2         -4.6243   -4.2719   -1.4534 N.am      1 <0>        -0.6040
      9 C7         -3.3964   -5.0064   -1.1129 C.3       1 <0>         0.1053
     10 C8         -2.3769   -4.7983   -2.2378 C.3       1 <0>         0.0400
     11 C9         -5.8264   -4.8804   -1.4191 C.2       1 <0>         0.5897
     12 O1         -6.8387   -4.2392   -1.6262 O.2       1 <0>        -0.5215
     13 C10        -5.9141   -6.3236   -1.1306 C.2       1 <0>        -0.2088
     14 C11        -5.3011   -6.9896   -0.0884 C.2       1 <0>         0.0919
     15 N3         -5.6370   -8.2858   -0.1869 N.pl3     1 <0>        -0.3407
     16 N4         -6.4698   -8.4451   -1.3000 N.2       1 <0>        -0.1867
     17 C12        -6.6463   -7.2828   -1.8654 C.2       1 <0>        -0.4334
     18 S1         -7.6229   -6.9656   -3.2973 S.o2      1 <0>         2.7142
     19 O2         -8.9625   -6.8113   -2.8493 O.2       1 <0>        -0.9332
     20 O3         -6.9457   -5.9578   -4.0356 O.2       1 <0>        -0.9299
     21 N5         -7.5893   -8.3360   -4.2263 N.pl3     1 <0>        -0.9817
     22 C13        -6.5462   -8.5243   -5.2443 C.3       1 <0>         0.1046
     23 C14        -5.8310   -9.8536   -4.9731 C.3       1 <0>         0.1376
     24 N6         -6.8436  -10.9036   -4.7940 N.pl3     1 <0>        -0.6610
     25 C15        -7.8867  -10.7154   -3.7760 C.3       1 <0>         0.1349
     26 C16        -8.5986   -9.3886   -4.0434 C.3       1 <0>         0.1052
     27 C17        -6.8152  -12.0620   -5.5792 C.ar      1 <0>         0.1364
     28 C18        -6.1063  -13.1750   -5.1514 C.ar      1 <0>        -0.0858
     29 C19        -6.0802  -14.3179   -5.9283 C.ar      1 <0>        -0.1533
     30 C20        -6.7593  -14.3552   -7.1320 C.ar      1 <0>        -0.0824
     31 C21        -7.4681  -13.2495   -7.5649 C.ar      1 <0>        -0.2072
     32 C22        -7.5036  -12.1022   -6.7898 C.ar      1 <0>         0.1238
     33 O4         -8.2045  -11.0157   -7.2118 O.3       1 <0>        -0.3017
     34 C23        -8.8858  -11.1291   -8.4628 C.3       1 <0>         0.0529
     35 C24        -9.6129   -9.8181   -8.7682 C.3       1 <0>        -0.1520
     36 C25        -5.2041   -9.3534    0.7181 C.3       1 <0>         0.0872
     37 H1          1.4962    0.3167   -5.1688 H         1 <0>         0.0540
     38 H2         -0.1986    0.6916   -4.7746 H         1 <0>         0.0539
     39 H3          0.9882    0.4583   -3.4688 H         1 <0>         0.0546
     40 H4          0.0574   -1.6856   -5.4319 H         1 <0>         0.0597
     41 H5          1.2442   -1.9189   -4.1261 H         1 <0>         0.0615
     42 H6         -0.4748   -1.2933   -2.4520 H         1 <0>         0.0716
     43 H7         -1.6616   -1.0600   -3.7579 H         1 <0>         0.0632
     44 H8         -1.4056   -3.4372   -4.4151 H         1 <0>         0.0350
     45 H9         -0.2188   -3.6705   -3.1093 H         1 <0>         0.0754
     46 H10        -3.2624   -1.6789   -3.1436 H         1 <0>         0.0934
     47 H11        -3.7913   -3.2337   -3.8313 H         1 <0>         0.0444
     48 H12        -4.2062   -2.2685   -0.9638 H         1 <0>         0.0786
     49 H13        -5.4633   -2.4957   -2.2081 H         1 <0>         0.1002
     50 H14        -2.9902   -4.6260   -0.1756 H         1 <0>         0.0816
     51 H15        -3.6206   -6.0685   -1.0137 H         1 <0>         0.0877
     52 H16        -2.7405   -5.2710   -3.1502 H         1 <0>         0.0420
     53 H17        -1.4239   -5.2435   -1.9519 H         1 <0>         0.0879
     54 H18        -4.6672   -6.5491    0.6670 H         1 <0>         0.1960
     55 H19        -7.0015   -8.5491   -6.2344 H         1 <0>         0.0849
     56 H20        -5.8292   -7.7052   -5.1891 H         1 <0>         0.0909
     57 H21        -5.1905  -10.1036   -5.8189 H         1 <0>         0.0786
     58 H22        -5.2294   -9.7674   -4.0683 H         1 <0>         0.0526
     59 H23        -8.6037  -11.5345   -3.8312 H         1 <0>         0.0787
     60 H24        -7.4314  -10.6906   -2.7860 H         1 <0>         0.0616
     61 H25        -9.2366   -9.1401   -3.1953 H         1 <0>         0.0933
     62 H26        -9.2034   -9.4764   -4.9460 H         1 <0>         0.0832
     63 H27        -5.5747  -13.1484   -4.2117 H         1 <0>         0.1268
     64 H28        -5.5277  -15.1838   -5.5945 H         1 <0>         0.1233
     65 H29        -6.7359  -15.2502   -7.7361 H         1 <0>         0.1236
     66 H30        -7.9974  -13.2820   -8.5057 H         1 <0>         0.1265
     67 H31        -8.1636  -11.3365   -9.2524 H         1 <0>         0.0595
     68 H32        -9.6098  -11.9423   -8.4099 H         1 <0>         0.0598
     69 H33       -10.1326   -9.9045   -9.7225 H         1 <0>         0.0776
     70 H34       -10.3352   -9.6107   -7.9787 H         1 <0>         0.0664
     71 H35        -8.8890   -9.0049   -8.8212 H         1 <0>         0.0659
     72 H36        -5.9196   -9.4499    1.5347 H         1 <0>         0.0888
     73 H37        -5.1490  -10.2940    0.1702 H         1 <0>         0.1004
     74 H38        -4.2216   -9.1105    1.1228 H         1 <0>         0.0986
@<TRIPOS>BOND
     1    1    2 1
     2    1   37 1
     3    1   38 1
     4    1   39 1
     5    2    3 1
     6    2   40 1
     7    2   41 1
     8    3    4 1
     9    3   42 1
    10    3   43 1
    11    4    5 1
    12    4   44 1
    13    4   45 1
    14    5   10 1
    15    5    6 1
    16    6    7 1
    17    6   46 1
    18    6   47 1
    19    7    8 1
    20    7   48 1
    21    7   49 1
    22    8    9 1
    23    8   11 am
    24    9   10 1
    25    9   50 1
    26    9   51 1
    27   10   52 1
    28   10   53 1
    29   11   12 2
    30   11   13 1
    31   13   17 1
    32   13   14 2
    33   14   15 1
    34   14   54 1
    35   15   16 1
    36   15   36 1
    37   16   17 2
    38   17   18 1
    39   18   19 2
    40   18   20 2
    41   18   21 1
    42   21   26 1
    43   21   22 1
    44   22   23 1
    45   22   55 1
    46   22   56 1
    47   23   24 1
    48   23   57 1
    49   23   58 1
    50   24   25 1
    51   24   27 1
    52   25   26 1
    53   25   59 1
    54   25   60 1
    55   26   61 1
    56   26   62 1
    57   27   32 ar
    58   27   28 ar
    59   28   29 ar
    60   28   63 1
    61   29   30 ar
    62   29   64 1
    63   30   31 ar
    64   30   65 1
    65   31   32 ar
    66   31   66 1
    67   32   33 1
    68   33   34 1
    69   34   35 1
    70   34   67 1
    71   34   68 1
    72   35   69 1
    73   35   70 1
    74   35   71 1
    75   36   72 1
    76   36   73 1
    77   36   74 1
@<TRIPOS>MOLECULE
ZINC12426729
   48    50     0     0     0
SMALL
USER_CHARGES
[2-[(4-methoxyphenyl)amino]-2-oxo-ethyl] 2-[(2S)-3-oxo-6-(trifluoromethyl)-4H-1,4-benzothiazin-2-yl]acetate
@<TRIPOS>ATOM
      1 C1         -1.7149    3.6546    8.1067 C.3       1 <0>         0.0260
      2 O1         -2.5802    3.3617    7.0078 O.3       1 <0>        -0.3164
      3 C2         -2.0051    2.8418    5.8908 C.ar      1 <0>         0.1186
      4 C3         -2.7873    2.5344    4.7872 C.ar      1 <0>        -0.1332
      5 C4         -2.2040    2.0059    3.6526 C.ar      1 <0>        -0.0778
      6 C5         -0.8341    1.7826    3.6164 C.ar      1 <0>         0.1019
      7 C6         -0.0524    2.0860    4.7231 C.ar      1 <0>        -0.0991
      8 C7         -0.6363    2.6194    5.8551 C.ar      1 <0>        -0.1906
      9 N1         -0.2416    1.2460    2.4658 N.am      1 <0>        -0.6660
     10 C8         -0.7169    1.5732    1.2478 C.2       1 <0>         0.5143
     11 O2         -1.7086    2.2647    1.1496 O.2       1 <0>        -0.4956
     12 C9         -0.0164    1.0801    0.0081 C.3       1 <0>         0.0515
     13 O3         -0.7163    1.5642   -1.1684 O.3       1 <0>        -0.3279
     14 C10        -0.2165    1.2112   -2.3631 C.2       1 <0>         0.4732
     15 O4          0.7731    0.5206   -2.4239 O.2       1 <0>        -0.4852
     16 C11        -0.8896    1.6763   -3.6287 C.3       1 <0>        -0.1053
     17 C12        -0.1252    1.1387   -4.8401 C.3       1 <0>        -0.0922
     18 H1         -0.0467    0.0537   -4.7717 H         1 <0>         0.1670
     19 C13        -0.8491    1.5196   -6.1054 C.2       1 <0>         0.5322
     20 O5         -1.5718    0.6966   -6.6266 O.2       1 <0>        -0.4936
     21 N2         -0.7341    2.7131   -6.6786 N.am      1 <0>        -0.6510
     22 C14         0.1286    3.7370   -6.2991 C.ar      1 <0>         0.1584
     23 C15        -0.1099    5.0297   -6.7560 C.ar      1 <0>        -0.0889
     24 C16         0.7197    6.0663   -6.3773 C.ar      1 <0>        -0.1459
     25 C17         1.7965    5.8331   -5.5414 C.ar      1 <0>        -0.0773
     26 C18         2.0483    4.5529   -5.0832 C.ar      1 <0>        -0.0556
     27 C19         1.2203    3.5091   -5.4619 C.ar      1 <0>        -0.1195
     28 S1          1.5396    1.8704   -4.8865 S.3       1 <0>        -0.0262
     29 C20         0.4496    7.4618   -6.8779 C.3       1 <0>         0.5100
     30 F1          1.4139    8.3360   -6.3650 F         1 <0>        -0.1724
     31 F2          0.5049    7.4747   -8.2757 F         1 <0>        -0.1728
     32 F3         -0.8207    7.8703   -6.4576 F         1 <0>        -0.1728
     33 H2         -2.2998    4.0628    8.9309 H         1 <0>         0.1015
     34 H3         -1.2180    2.7405    8.4315 H         1 <0>         0.0562
     35 H4         -0.9669    4.3839    7.7958 H         1 <0>         0.0561
     36 H5         -3.8529    2.7081    4.8154 H         1 <0>         0.1364
     37 H6         -2.8131    1.7666    2.7935 H         1 <0>         0.1465
     38 H7          1.0126    1.9087    4.6971 H         1 <0>         0.1303
     39 H8         -0.0277    2.8596    6.7144 H         1 <0>         0.1338
     40 H9          0.5107    0.6389    2.5457 H         1 <0>         0.4134
     41 H10        -0.0095   -0.0099    0.0039 H         1 <0>         0.1086
     42 H11         1.0089    1.4499   -0.0013 H         1 <0>         0.1099
     43 H12        -1.9146    1.3061   -3.6522 H         1 <0>         0.1317
     44 H13        -0.8961    2.7659   -3.6574 H         1 <0>         0.1173
     45 H14        -1.3104    2.8885   -7.4388 H         1 <0>         0.4197
     46 H15        -0.9475    5.2228   -7.4098 H         1 <0>         0.1466
     47 H16         2.4395    6.6493   -5.2468 H         1 <0>         0.1521
     48 H17         2.8888    4.3673   -4.4309 H         1 <0>         0.1517
@<TRIPOS>BOND
     1    1    2 1
     2    1   33 1
     3    1   34 1
     4    1   35 1
     5    2    3 1
     6    3    8 ar
     7    3    4 ar
     8    4    5 ar
     9    4   36 1
    10    5    6 ar
    11    5   37 1
    12    6    7 ar
    13    6    9 1
    14    7    8 ar
    15    7   38 1
    16    8   39 1
    17    9   10 am
    18    9   40 1
    19   10   11 2
    20   10   12 1
    21   12   13 1
    22   12   41 1
    23   12   42 1
    24   13   14 1
    25   14   15 2
    26   14   16 1
    27   16   17 1
    28   16   43 1
    29   16   44 1
    30   17   18 1
    31   17   28 1
    32   17   19 1
    33   19   20 2
    34   19   21 am
    35   21   22 1
    36   21   45 1
    37   22   27 ar
    38   22   23 ar
    39   23   24 ar
    40   23   46 1
    41   24   25 ar
    42   24   29 1
    43   25   26 ar
    44   25   47 1
    45   26   27 ar
    46   26   48 1
    47   27   28 1
    48   29   30 1
    49   29   31 1
    50   29   32 1
@<TRIPOS>MOLECULE
ZINC15072019
   62    64     0     0     0
SMALL
USER_CHARGES
N-cyclooctyl-4-oxo-1-[[(2S)-tetrahydrofuran-2-yl]methyl]-N'-(2,2,2-trifluoroethyl)pyridine-3,5-dicarboxamide
@<TRIPOS>ATOM
      1 C1          2.4534    8.1435    2.0328 C.2       1 <0>         0.1732
      2 C2          3.6363    7.4795    2.2745 C.2       1 <0>        -0.2796
      3 C3          3.7227    6.0538    1.9163 C.2       1 <0>         0.4250
      4 O1          4.7421    5.4117    2.1051 O.2       1 <0>        -0.4254
      5 C4          2.5262    5.4364    1.3200 C.2       1 <0>        -0.2753
      6 C5          1.4109    6.2227    1.1300 C.2       1 <0>         0.1814
      7 N1          1.3987    7.5182    1.4845 N.pl3     1 <0>        -0.4590
      8 C6          0.1743    8.2898    1.2569 C.3       1 <0>         0.0871
      9 C7          0.2189    8.9174   -0.1378 C.3       1 <0>         0.0503
     10 H1          1.1440    9.4782   -0.2713 H         1 <0>         0.0809
     11 C8         -1.0033    9.8372   -0.3529 C.3       1 <0>        -0.1477
     12 C9         -1.3817    9.6183   -1.8349 C.3       1 <0>        -0.1558
     13 C10        -0.3433    8.5921   -2.3398 C.3       1 <0>         0.0459
     14 O2          0.0960    7.8970   -1.1525 O.3       1 <0>        -0.3692
     15 C11         2.5238    4.0158    0.9310 C.2       1 <0>         0.5728
     16 O3          3.5186    3.3371    1.1009 O.2       1 <0>        -0.5019
     17 N2          1.4193    3.4680    0.3866 N.am      1 <0>        -0.7316
     18 C12         1.4169    2.0551   -0.0004 C.3       1 <0>         0.1245
     19 C13        -0.0187    1.5257    0.0104 C.3       1 <0>        -0.1257
     20 C14         0.0021   -0.0041    0.0020 C.3       1 <0>        -0.1241
     21 C15         1.0555   -0.5060    0.9913 C.3       1 <0>        -0.1324
     22 C16         2.1917   -1.1866    0.2252 C.3       1 <0>        -0.1197
     23 C17         3.0770   -0.1213   -0.4249 C.3       1 <0>        -0.1359
     24 C18         2.3702    0.4465   -1.6573 C.3       1 <0>        -0.1230
     25 C19         2.0032    1.9103   -1.4064 C.3       1 <0>        -0.1282
     26 C20         4.7853    8.1781    2.8754 C.2       1 <0>         0.5821
     27 O4          5.8223    7.5771    3.0817 O.2       1 <0>        -0.4907
     28 N3          4.6875    9.4834    3.1967 N.am      1 <0>        -0.7375
     29 C21         5.8303   10.1783    3.7944 C.3       1 <0>         0.0802
     30 C22         5.4576   11.6382    4.0597 C.3       1 <0>         0.4487
     31 F1          4.3695   11.6897    4.9375 F         1 <0>        -0.1786
     32 F2          6.5490   12.3018    4.6305 F         1 <0>        -0.1697
     33 F3          5.1136   12.2583    2.8537 F         1 <0>        -0.1789
     34 H2          2.3728    9.1894    2.2894 H         1 <0>         0.1661
     35 H3          0.5260    5.7870    0.6901 H         1 <0>         0.1692
     36 H4         -0.6901    7.6299    1.3308 H         1 <0>         0.1148
     37 H5          0.0959    9.0766    2.0070 H         1 <0>         0.1199
     38 H6         -1.8247    9.5397    0.2990 H         1 <0>         0.0831
     39 H7         -0.7332   10.8786   -0.1775 H         1 <0>         0.0853
     40 H8         -2.3902    9.2126   -1.9156 H         1 <0>         0.0799
     41 H9         -1.3010   10.5519   -2.3916 H         1 <0>         0.0814
     42 H10        -0.8071    7.8951   -3.0378 H         1 <0>         0.0973
     43 H11         0.4946    9.1024   -2.8147 H         1 <0>         0.0636
     44 H12         0.6259    4.0094    0.2510 H         1 <0>         0.3903
     45 H13         2.0201    1.4840    0.7053 H         1 <0>         0.1165
     46 H14        -0.5458    1.8868   -0.8726 H         1 <0>         0.0675
     47 H15        -0.5288    1.8772    0.9072 H         1 <0>         0.0669
     48 H16        -0.9782   -0.3822    0.2922 H         1 <0>         0.0636
     49 H17         0.2461   -0.3585   -0.9994 H         1 <0>         0.0772
     50 H18         1.4527    0.3364    1.5576 H         1 <0>         0.0719
     51 H19         0.5995   -1.2212    1.6759 H         1 <0>         0.0607
     52 H20         2.7885   -1.7837    0.9148 H         1 <0>         0.0605
     53 H21         1.7737   -1.8324   -0.5469 H         1 <0>         0.0632
     54 H22         3.2635    0.6811    0.2888 H         1 <0>         0.0812
     55 H23         4.0246   -0.5693   -0.7238 H         1 <0>         0.0599
     56 H24         3.0343    0.3811   -2.5191 H         1 <0>         0.0605
     57 H25         1.4641   -0.1269   -1.8527 H         1 <0>         0.0729
     58 H26         2.8964    2.5289   -1.4931 H         1 <0>         0.0665
     59 H27         1.2660    2.2313   -2.1423 H         1 <0>         0.0615
     60 H28         3.8604    9.9627    3.0321 H         1 <0>         0.3989
     61 H29         6.0984    9.6952    4.7340 H         1 <0>         0.1188
     62 H30         6.6781   10.1382    3.1105 H         1 <0>         0.1186
@<TRIPOS>BOND
     1    1    7 1
     2    1    2 2
     3    1   34 1
     4    2    3 1
     5    2   26 1
     6    3    4 2
     7    3    5 1
     8    5    6 2
     9    5   15 1
    10    6    7 1
    11    6   35 1
    12    7    8 1
    13    8    9 1
    14    8   36 1
    15    8   37 1
    16    9   10 1
    17    9   14 1
    18    9   11 1
    19   11   12 1
    20   11   38 1
    21   11   39 1
    22   12   13 1
    23   12   40 1
    24   12   41 1
    25   13   14 1
    26   13   42 1
    27   13   43 1
    28   15   16 2
    29   15   17 am
    30   17   18 1
    31   17   44 1
    32   18   25 1
    33   18   19 1
    34   18   45 1
    35   19   20 1
    36   19   46 1
    37   19   47 1
    38   20   21 1
    39   20   48 1
    40   20   49 1
    41   21   22 1
    42   21   50 1
    43   21   51 1
    44   22   23 1
    45   22   52 1
    46   22   53 1
    47   23   24 1
    48   23   54 1
    49   23   55 1
    50   24   25 1
    51   24   56 1
    52   24   57 1
    53   25   58 1
    54   25   59 1
    55   26   27 2
    56   26   28 am
    57   28   29 1
    58   28   60 1
    59   29   30 1
    60   29   61 1
    61   29   62 1
    62   30   31 1
    63   30   32 1
    64   30   33 1
@<TRIPOS>MOLECULE
ZINC38674179
   58    61     0     0     0
SMALL
USER_CHARGES

@<TRIPOS>ATOM
      1 C1         -9.7739  -12.9154    3.3906 C.3       1 <0>         0.0342
      2 O1         -8.4274  -12.4371    3.3782 O.3       1 <0>        -0.3499
      3 C2         -7.8203  -12.3498    2.1784 C.2       1 <0>         0.5090
      4 O2         -8.4178  -12.6710    1.1703 O.2       1 <0>        -0.5037
      5 C3         -6.4306  -11.8644    2.0887 C.ar      1 <0>        -0.1415
      6 C4         -5.7397  -11.4998    3.2482 C.ar      1 <0>        -0.0379
      7 C5         -4.4426  -11.0476    3.1611 C.ar      1 <0>        -0.1347
      8 C6         -3.8189  -10.9526    1.9204 C.ar      1 <0>         0.1799
      9 C7         -4.5039  -11.3147    0.7641 C.ar      1 <0>        -0.1508
     10 C8         -5.7992  -11.7732    0.8447 C.ar      1 <0>        -0.0302
     11 N1         -2.5069  -10.4938    1.8358 N.am      1 <0>        -0.6453
     12 C9         -1.6272  -10.7837    2.8148 C.2       1 <0>         0.5108
     13 O3         -1.9516  -11.5195    3.7238 O.2       1 <0>        -0.4902
     14 C10        -0.2530  -10.1994    2.7811 C.2       1 <0>         0.5120
     15 O4          0.0714   -9.4636    1.8721 O.2       1 <0>        -0.5101
     16 N2          0.6268  -10.4893    3.7601 N.am      1 <0>        -0.6912
     17 C11         1.9746   -9.9161    3.7270 C.3       1 <0>         0.1251
     18 C12         2.8062  -10.5022    4.8698 C.3       1 <0>         0.1324
     19 H1          2.3011  -10.3183    5.8180 H         1 <0>         0.0595
     20 C13         2.9655  -11.9867    4.6651 C.2       1 <0>        -0.1344
     21 C14         2.1676  -12.8796    5.3554 C.2       1 <0>        -0.1572
     22 C15         2.3366  -14.2085    5.1482 C.2       1 <0>        -0.1667
     23 S1          3.6564  -14.2298    3.9462 S.3       1 <0>         0.0366
     24 C16         3.8897  -12.4661    3.7971 C.2       1 <0>        -0.1313
     25 N3          4.1300   -9.8656    4.8885 N.3       1 <0>        -0.5188
     26 C17         4.9632  -10.4134    5.9707 C.3       1 <0>         0.0531
     27 C18         6.4143  -10.0004    5.7227 C.3       1 <0>        -0.0748
     28 C19         6.4910   -8.5160    5.4728 C.ar      1 <0>        -0.0682
     29 C20         7.7237   -7.8900    5.5809 C.ar      1 <0>        -0.1205
     30 C21         7.8387   -6.5329    5.3566 C.ar      1 <0>        -0.1179
     31 C22         6.7192   -5.7939    5.0216 C.ar      1 <0>        -0.1214
     32 C23         5.4917   -6.4158    4.9150 C.ar      1 <0>        -0.1146
     33 C24         5.3739   -7.7792    5.1428 C.ar      1 <0>        -0.0792
     34 C25         4.0114   -8.4106    5.0256 C.3       1 <0>         0.0886
     35 H2         -9.8060  -13.9215    2.9722 H         1 <0>         0.0623
     36 H3        -10.1425  -12.9365    4.4162 H         1 <0>         0.1046
     37 H4        -10.4003  -12.2532    2.7929 H         1 <0>         0.0624
     38 H5         -6.2233  -11.5726    4.2112 H         1 <0>         0.1450
     39 H6         -3.9084  -10.7658    4.0564 H         1 <0>         0.1434
     40 H7         -4.0172  -11.2395   -0.1971 H         1 <0>         0.1413
     41 H8         -6.3286  -12.0582   -0.0525 H         1 <0>         0.1456
     42 H9         -2.2261   -9.9656    1.0722 H         1 <0>         0.4274
     43 H10         0.3675  -11.0774    4.4866 H         1 <0>         0.4132
     44 H11         2.4475  -10.1544    2.7743 H         1 <0>         0.0905
     45 H12         1.9122   -8.8339    3.8410 H         1 <0>         0.0803
     46 H13         1.4208  -12.5239    6.0498 H         1 <0>         0.1318
     47 H14         1.8098  -15.0389    5.5947 H         1 <0>         0.1859
     48 H15         4.5869  -11.9223    3.1770 H         1 <0>         0.1905
     49 H16         4.6278  -10.0153    6.9284 H         1 <0>         0.0413
     50 H17         4.8879  -11.5008    5.9763 H         1 <0>         0.0869
     51 H18         7.0165  -10.2520    6.5957 H         1 <0>         0.0797
     52 H19         6.7989  -10.5340    4.8536 H         1 <0>         0.0850
     53 H20         8.5983   -8.4673    5.8422 H         1 <0>         0.1214
     54 H21         8.8006   -6.0495    5.4430 H         1 <0>         0.1220
     55 H22         6.8050   -4.7321    4.8439 H         1 <0>         0.1226
     56 H23         4.6179   -5.8377    4.6530 H         1 <0>         0.1215
     57 H24         3.5020   -8.0071    4.1505 H         1 <0>         0.0934
     58 H25         3.4299   -8.1795    5.9181 H         1 <0>         0.0511
@<TRIPOS>BOND
     1    1    2 1
     2    1   35 1
     3    1   36 1
     4    1   37 1
     5    2    3 1
     6    3    4 2
     7    3    5 1
     8    5   10 ar
     9    5    6 ar
    10    6    7 ar
    11    6   38 1
    12    7    8 ar
    13    7   39 1
    14    8    9 ar
    15    8   11 1
    16    9   10 ar
    17    9   40 1
    18   10   41 1
    19   11   12 am
    20   11   42 1
    21   12   13 2
    22   12   14 1
    23   14   15 2
    24   14   16 am
    25   16   17 1
    26   16   43 1
    27   17   18 1
    28   17   44 1
    29   17   45 1
    30   18   19 1
    31   18   20 1
    32   18   25 1
    33   20   24 2
    34   20   21 1
    35   21   22 2
    36   21   46 1
    37   22   23 1
    38   22   47 1
    39   23   24 1
    40   24   48 1
    41   25   34 1
    42   25   26 1
    43   26   27 1
    44   26   49 1
    45   26   50 1
    46   27   28 1
    47   27   51 1
    48   27   52 1
    49   28   33 ar
    50   28   29 ar
    51   29   30 ar
    52   29   53 1
    53   30   31 ar
    54   30   54 1
    55   31   32 ar
    56   31   55 1
    57   32   33 ar
    58   32   56 1
    59   33   34 1
    60   34   57 1
    61   34   58 1
@<TRIPOS>MOLECULE
ZINC46711302
   60    62     0     0     0
SMALL
USER_CHARGES

@<TRIPOS>ATOM
      1 C1          1.4661   -0.8146   -3.1234 C.3       1 <0>        -0.1471
      2 C2          1.1594   -1.8970   -2.0864 C.3       1 <0>        -0.1090
      3 H1          1.8304   -2.7431   -2.2344 H         1 <0>         0.0784
      4 C3         -0.2903   -2.3608   -2.2456 C.3       1 <0>        -0.1114
      5 C4         -0.5883   -3.4665   -1.2304 C.3       1 <0>        -0.1073
      6 H2         -1.6138   -3.8126   -1.3600 H         1 <0>         0.0848
      7 C5         -0.4103   -2.9142    0.1873 C.3       1 <0>         0.1139
      8 N1          0.9349   -2.3348    0.3036 N.am      1 <0>        -0.6012
      9 C6          1.3580   -1.3270   -0.6784 C.3       1 <0>         0.1003
     10 C7          1.7654   -2.7202    1.2926 C.2       1 <0>         0.5605
     11 O1          1.3815   -3.5064    2.1371 O.2       1 <0>        -0.5283
     12 C8          3.1400   -2.1885    1.3506 C.ar      1 <0>        -0.1591
     13 C9          3.3614   -0.8094    1.3290 C.ar      1 <0>        -0.0724
     14 C10         4.6479   -0.3188    1.3834 C.ar      1 <0>        -0.1368
     15 C11         5.7254   -1.1869    1.4590 C.ar      1 <0>        -0.0770
     16 C12         5.5226   -2.5518    1.4811 C.ar      1 <0>        -0.1275
     17 C13         4.2327   -3.0645    1.4334 C.ar      1 <0>         0.1950
     18 N2          4.0255   -4.4404    1.4615 N.am      1 <0>        -0.6599
     19 C14         4.8671   -5.2347    2.1523 C.2       1 <0>         0.6123
     20 O2          5.8478   -4.7580    2.6928 O.2       1 <0>        -0.5026
     21 C15         4.6013   -6.6722    2.2525 C.2       1 <0>        -0.2623
     22 C16         5.3289   -7.6518    2.9117 C.2       1 <0>        -0.0536
     23 C17         4.8256   -8.9277    2.8267 C.2       1 <0>        -0.1782
     24 C18         3.6847   -9.1409    2.1253 C.2       1 <0>        -0.1878
     25 S1          3.2544   -7.6165    1.5655 S.3       1 <0>         0.2155
     26 C19         2.9640  -10.4458    1.9044 C.3       1 <0>        -0.0446
     27 C20         1.9434  -10.6606    3.0239 C.3       1 <0>         0.1159
     28 N3          1.2428  -11.9291    2.8092 N.pl3     1 <0>        -1.1206
     29 S2          0.3585  -12.6045    4.0356 S.o2      1 <0>         2.6158
     30 O3         -0.1504  -13.8147    3.4919 O.2       1 <0>        -0.9561
     31 O4          1.2404  -12.6253    5.1497 O.2       1 <0>        -0.9543
     32 C21        -0.9959  -11.4349    4.3327 C.3       1 <0>        -0.6740
     33 C22         0.3761   -4.6340   -1.4492 C.3       1 <0>        -0.1477
     34 H3          2.4983   -0.4838   -3.0089 H         1 <0>         0.0583
     35 H4          1.3235   -1.2202   -4.1250 H         1 <0>         0.0601
     36 H5          0.7949    0.0313   -2.9750 H         1 <0>         0.0577
     37 H6         -0.9617   -1.5194   -2.0737 H         1 <0>         0.0659
     38 H7         -0.4401   -2.7443   -3.2548 H         1 <0>         0.0680
     39 H8         -1.1577   -2.1434    0.3757 H         1 <0>         0.0700
     40 H9         -0.5243   -3.7213    0.9109 H         1 <0>         0.0944
     41 H10         2.4104   -1.0872   -0.5263 H         1 <0>         0.0955
     42 H11         0.7552   -0.4266   -0.5602 H         1 <0>         0.0729
     43 H12         2.5252   -0.1284    1.2695 H         1 <0>         0.1324
     44 H13         4.8174    0.7477    1.3666 H         1 <0>         0.1323
     45 H14         6.7301   -0.7929    1.5004 H         1 <0>         0.1333
     46 H15         6.3676   -3.2219    1.5398 H         1 <0>         0.1504
     47 H16         3.2753   -4.8277    0.9838 H         1 <0>         0.4103
     48 H17         6.2336   -7.4264    3.4568 H         1 <0>         0.1534
     49 H18         5.3318   -9.7493    3.3116 H         1 <0>         0.1436
     50 H19         2.4494  -10.4185    0.9440 H         1 <0>         0.0913
     51 H20         3.6843  -11.2638    1.9076 H         1 <0>         0.1011
     52 H21         2.4580  -10.6878    3.9844 H         1 <0>         0.0893
     53 H22         1.2231   -9.8425    3.0208 H         1 <0>         0.0698
     54 H23         1.2968  -12.3734    1.9486 H         1 <0>         0.4203
     55 H24        -1.5866  -11.3244    3.4232 H         1 <0>         0.1299
     56 H25        -1.6310  -11.8105    5.1350 H         1 <0>         0.1315
     57 H26        -0.5840  -10.4670    4.6183 H         1 <0>         0.1274
     58 H27         1.4013   -4.2878   -1.3184 H         1 <0>         0.0542
     59 H28         0.1635   -5.4213   -0.7260 H         1 <0>         0.0555
     60 H29         0.2505   -5.0247   -2.4590 H         1 <0>         0.0574
@<TRIPOS>BOND
     1    1    2 1
     2    1   34 1
     3    1   35 1
     4    1   36 1
     5    2    3 1
     6    2    9 1
     7    2    4 1
     8    4    5 1
     9    4   37 1
    10    4   38 1
    11    5    6 1
    12    5    7 1
    13    5   33 1
    14    7    8 1
    15    7   39 1
    16    7   40 1
    17    8    9 1
    18    8   10 am
    19    9   41 1
    20    9   42 1
    21   10   11 2
    22   10   12 1
    23   12   17 ar
    24   12   13 ar
    25   13   14 ar
    26   13   43 1
    27   14   15 ar
    28   14   44 1
    29   15   16 ar
    30   15   45 1
    31   16   17 ar
    32   16   46 1
    33   17   18 1
    34   18   19 am
    35   18   47 1
    36   19   20 2
    37   19   21 1
    38   21   25 1
    39   21   22 2
    40   22   23 1
    41   22   48 1
    42   23   24 2
    43   23   49 1
    44   24   25 1
    45   24   26 1
    46   26   27 1
    47   26   50 1
    48   26   51 1
    49   27   28 1
    50   27   52 1
    51   27   53 1
    52   28   29 1
    53   28   54 1
    54   29   30 2
    55   29   31 2
    56   29   32 1
    57   32   55 1
    58   32   56 1
    59   32   57 1
    60   33   58 1
    61   33   59 1
    62   33   60 1
@<TRIPOS>MOLECULE
ZINC02231653
   45    47     0     0     0
SMALL
USER_CHARGES

@<TRIPOS>ATOM
      1 C1         -2.7124   -1.3420   -0.0680 C.3       1 <0>        -0.1512
      2 C2         -1.1847   -1.2666   -0.0320 C.3       1 <0>        -0.1240
      3 C3         -0.6663   -2.0095    1.2010 C.3       1 <0>         0.0551
      4 O1          0.7606   -1.9390    1.2346 O.3       1 <0>        -0.3102
      5 C4          1.3846   -2.5535    2.2745 C.ar      1 <0>         0.1495
      6 C5          0.6376   -3.2151    3.2384 C.ar      1 <0>        -0.1971
      7 C6          1.2710   -3.8398    4.2944 C.ar      1 <0>        -0.0571
      8 C7          2.6553   -3.8057    4.3916 C.ar      1 <0>         0.0597
      9 C8          3.4023   -3.1436    3.4269 C.ar      1 <0>        -0.0545
     10 C9          2.7684   -2.5237    2.3683 C.ar      1 <0>        -0.1396
     11 N1          3.2994   -4.4401    5.4650 N.am      1 <0>        -0.5254
     12 C10         3.9526   -3.7652    6.4191 C.2       1 <0>         0.5174
     13 O2          4.0659   -2.5595    6.4740 O.2       1 <0>        -0.4519
     14 C11         4.5268   -4.7459    7.4182 C.3       1 <0>        -0.1553
     15 C12         4.0874   -6.1190    6.8704 C.3       1 <0>         0.0397
     16 H1          4.9561   -6.7299    6.6249 H         1 <0>         0.1665
     17 C13         3.3064   -5.7696    5.6223 C.2       1 <0>         0.4855
     18 O3          2.7738   -6.5672    4.8809 O.2       1 <0>        -0.4503
     19 N2          3.2277   -6.8114    7.8396 N.3       1 <0>        -0.3985
     20 N3          2.1043   -6.0815    8.1064 N.am      1 <0>        -0.5856
     21 C14         1.1869   -6.5501    8.9755 C.2       1 <0>         0.6147
     22 O4          1.3594   -7.6236    9.5226 O.2       1 <0>        -0.4947
     23 C15        -0.0180   -5.7674    9.2616 C.2       1 <0>        -0.2432
     24 C16        -1.0692   -6.0622   10.1169 C.2       1 <0>        -0.0562
     25 C17        -2.0711   -5.1242   10.1770 C.2       1 <0>        -0.1392
     26 C18        -1.9708   -4.0030    9.4184 C.2       1 <0>        -0.2176
     27 S1         -0.5110   -4.1842    8.6070 S.3       1 <0>         0.2489
     28 Br1        -3.1910   -2.5627    9.3070 Br        1 <0>         0.0535
     29 H2         -3.1202   -0.8815    0.8318 H         1 <0>         0.0583
     30 H3         -3.0817   -0.8128   -0.9464 H         1 <0>         0.0667
     31 H4         -3.0236   -2.3856   -0.1150 H         1 <0>         0.0583
     32 H5         -0.7768   -1.7271   -0.9318 H         1 <0>         0.0750
     33 H6         -0.8734   -0.2230    0.0151 H         1 <0>         0.0751
     34 H7         -1.0741   -1.5489    2.1008 H         1 <0>         0.0654
     35 H8         -0.9775   -3.0530    1.1540 H         1 <0>         0.0651
     36 H9         -0.4394   -3.2412    3.1629 H         1 <0>         0.1382
     37 H10         0.6894   -4.3545    5.0449 H         1 <0>         0.1255
     38 H11         4.4793   -3.1169    3.5021 H         1 <0>         0.1352
     39 H12         3.3497   -2.0121    1.6156 H         1 <0>         0.1427
     40 H13         5.6140   -4.6737    7.4453 H         1 <0>         0.1418
     41 H14         4.1052   -4.5754    8.4088 H         1 <0>         0.1369
     42 H15         2.9893   -7.7366    7.5153 H         1 <0>         0.3669
     43 H16         1.9668   -5.2260    7.6704 H         1 <0>         0.3949
     44 H17        -1.0985   -6.9718   10.6985 H         1 <0>         0.1629
     45 H18        -2.9265   -5.2769   10.8184 H         1 <0>         0.1521
@<TRIPOS>BOND
     1    1    2 1
     2    1   29 1
     3    1   30 1
     4    1   31 1
     5    2    3 1
     6    2   32 1
     7    2   33 1
     8    3    4 1
     9    3   34 1
    10    3   35 1
    11    4    5 1
    12    5   10 ar
    13    5    6 ar
    14    6    7 ar
    15    6   36 1
    16    7    8 ar
    17    7   37 1
    18    8    9 ar
    19    8   11 1
    20    9   10 ar
    21    9   38 1
    22   10   39 1
    23   11   17 am
    24   11   12 am
    25   12   13 2
    26   12   14 1
    27   14   15 1
    28   14   40 1
    29   14   41 1
    30   15   16 1
    31   15   17 1
    32   15   19 1
    33   17   18 2
    34   19   20 1
    35   19   42 1
    36   20   21 am
    37   20   43 1
    38   21   22 2
    39   21   23 1
    40   23   27 1
    41   23   24 2
    42   24   25 1
    43   24   44 1
    44   25   26 2
    45   25   45 1
    46   26   27 1
    47   26   28 1
@<TRIPOS>MOLECULE
ZINC11107387
   40    41     0     0     0
SMALL
USER_CHARGES
(4-bromo-2-fluoro-phenyl)carbamoylmethyl 2-chloro-5-(methylsulfamoyl)benzoate
@<TRIPOS>ATOM
      1 C1          1.2124    1.7477    0.0147 C.3       1 <0>         0.0797
      2 N1         -0.0402    0.9879    0.0195 N.pl3     1 <0>        -1.1173
      3 S1         -1.4919    1.7847    0.0313 S.o2      1 <0>         2.6974
      4 O1         -2.5031    0.7869    0.0001 O.2       1 <0>        -0.9457
      5 O2         -1.4129    2.7573    1.0643 O.2       1 <0>        -0.9462
      6 C2         -1.6120    2.6711   -1.4867 C.ar      1 <0>        -0.6938
      7 C3         -1.1390    3.9696   -1.5671 C.ar      1 <0>         0.0271
      8 C4         -1.2237    4.6713   -2.7556 C.ar      1 <0>        -0.1409
      9 C5         -1.7923    4.0836   -3.8689 C.ar      1 <0>         0.0690
     10 C6         -2.2769    2.7750   -3.7926 C.ar      1 <0>        -0.1410
     11 C7         -2.1821    2.0714   -2.5897 C.ar      1 <0>         0.0541
     12 C8         -2.8856    2.1391   -4.9779 C.2       1 <0>         0.5101
     13 O3         -2.9665    2.7537   -6.0227 O.2       1 <0>        -0.4752
     14 O4         -3.3513    0.8773   -4.9009 O.3       1 <0>        -0.3273
     15 C9         -3.9369    0.3160   -6.1052 C.3       1 <0>         0.0536
     16 C10        -4.3988   -1.0918   -5.8302 C.2       1 <0>         0.5191
     17 O5         -4.2491   -1.5747   -4.7276 O.2       1 <0>        -0.4865
     18 N2         -4.9781   -1.8144   -6.8093 N.am      1 <0>        -0.6669
     19 C11        -5.3226   -3.1529   -6.5818 C.ar      1 <0>         0.1299
     20 C12        -5.7593   -3.5550   -5.3271 C.ar      1 <0>        -0.0884
     21 C13        -6.0984   -4.8756   -5.1051 C.ar      1 <0>        -0.0776
     22 C14        -6.0039   -5.7984   -6.1317 C.ar      1 <0>        -0.0788
     23 C15        -5.5692   -5.4022   -7.3839 C.ar      1 <0>        -0.1066
     24 C16        -5.2332   -4.0804   -7.6139 C.ar      1 <0>         0.0828
     25 F1         -4.8144   -3.6920   -8.8382 F         1 <0>        -0.1286
     26 Br1        -6.4694   -7.6049   -5.8225 Br        1 <0>        -0.0298
     27 Cl1        -1.9040    4.9677   -5.3587 Cl        1 <0>        -0.0080
     28 H1          1.2642    2.3684    0.9092 H         1 <0>         0.0724
     29 H2          2.0559    1.0575    0.0020 H         1 <0>         0.0874
     30 H3          1.2489    2.3824   -0.8707 H         1 <0>         0.0596
     31 H4         -0.0193    0.0182    0.0117 H         1 <0>         0.4232
     32 H5         -0.6978    4.4355   -0.6983 H         1 <0>         0.1606
     33 H6         -0.8489    5.6826   -2.8122 H         1 <0>         0.1582
     34 H7         -2.5549    1.0600   -2.5235 H         1 <0>         0.1680
     35 H8         -4.7877    0.9240   -6.4129 H         1 <0>         0.1131
     36 H9         -3.1916    0.3051   -6.9005 H         1 <0>         0.1131
     37 H10        -5.1565   -1.4075   -7.6716 H         1 <0>         0.4196
     38 H11        -5.8342   -2.8358   -4.5250 H         1 <0>         0.1609
     39 H12        -6.4381   -5.1882   -4.1287 H         1 <0>         0.1473
     40 H13        -5.4964   -6.1245   -8.1835 H         1 <0>         0.1521
@<TRIPOS>BOND
     1    1    2 1
     2    1   28 1
     3    1   29 1
     4    1   30 1
     5    2    3 1
     6    2   31 1
     7    3    4 2
     8    3    5 2
     9    3    6 1
    10    6   11 ar
    11    6    7 ar
    12    7    8 ar
    13    7   32 1
    14    8    9 ar
    15    8   33 1
    16    9   10 ar
    17    9   27 1
    18   10   11 ar
    19   10   12 1
    20   11   34 1
    21   12   13 2
    22   12   14 1
    23   14   15 1
    24   15   16 1
    25   15   35 1
    26   15   36 1
    27   16   17 2
    28   16   18 am
    29   18   19 1
    30   18   37 1
    31   19   24 ar
    32   19   20 ar
    33   20   21 ar
    34   20   38 1
    35   21   22 ar
    36   21   39 1
    37   22   23 ar
    38   22   26 1
    39   23   24 ar
    40   23   40 1
    41   24   25 1
@<TRIPOS>MOLECULE
ZINC16741889
   60    63     0     0     0
SMALL
USER_CHARGES
(6S)-N-[(3R)-1,1-dioxothiolan-3-yl]-6-methyl-2-[[2-(2-methylphenoxy)acetyl]amino]-4,5,6,7-tetrahydrobenzothiophene-3-carboxamide
@<TRIPOS>ATOM
      1 C1         -4.3793    4.4499    9.4714 C.3       1 <0>        -0.1098
      2 C2         -3.0582    4.1177   10.1158 C.ar      1 <0>        -0.1069
      3 C3         -2.8794    4.3204   11.4708 C.ar      1 <0>        -0.0826
      4 C4         -1.6678    4.0154   12.0625 C.ar      1 <0>        -0.1481
      5 C5         -0.6321    3.5065   11.3005 C.ar      1 <0>        -0.0860
      6 C6         -0.8075    3.2971    9.9466 C.ar      1 <0>        -0.2060
      7 C7         -2.0207    3.6078    9.3492 C.ar      1 <0>         0.1212
      8 O1         -2.1940    3.4076    8.0162 O.3       1 <0>        -0.2855
      9 C8         -1.0826    2.8797    7.2895 C.3       1 <0>         0.0490
     10 C9         -1.4583    2.7267    5.8382 C.2       1 <0>         0.5109
     11 O2         -2.5686    3.0389    5.4630 O.2       1 <0>        -0.4685
     12 N1         -0.5605    2.2429    4.9570 N.am      1 <0>        -0.6183
     13 C10        -0.9063    2.1020    3.6216 C.2       1 <0>         0.0701
     14 C11        -0.1286    1.6271    2.5750 C.2       1 <0>        -0.2225
     15 C12        -0.7317    1.5801    1.2572 C.2       1 <0>        -0.0669
     16 C13        -2.0131    2.0121    1.1939 C.2       1 <0>        -0.2039
     17 S1         -2.4142    2.4763    2.8546 S.3       1 <0>         0.2393
     18 C14        -2.8869    2.0778   -0.0206 C.3       1 <0>        -0.0316
     19 C15        -2.2421    1.2301   -1.1268 C.3       1 <0>        -0.0871
     20 H1         -2.3424    0.1721   -0.8844 H         1 <0>         0.0768
     21 C16        -0.7582    1.5954   -1.2267 C.3       1 <0>        -0.1136
     22 C17        -0.0127    1.0858    0.0080 C.3       1 <0>        -0.0601
     23 C18        -2.9321    1.5180   -2.4616 C.3       1 <0>        -0.1480
     24 C19         1.2535    1.1888    2.7929 C.2       1 <0>         0.5838
     25 O3          1.4865    0.0280    3.0749 O.2       1 <0>        -0.5206
     26 N2          2.2660    2.0713    2.6808 N.am      1 <0>        -0.7125
     27 C20         3.6469    1.6334    2.8984 C.3       1 <0>         0.1387
     28 H2          3.7685    0.6096    2.5445 H         1 <0>         0.1166
     29 C21         3.9855    1.7083    4.3965 C.3       1 <0>        -0.1422
     30 C22         5.5127    1.5608    4.6004 C.3       1 <0>        -0.5745
     31 S2          6.1960    2.2237    3.0268 S.o2      1 <0>         2.3781
     32 O4          6.8907    1.1848    2.3505 O.2       1 <0>        -0.9264
     33 O5          6.8595    3.4520    3.2920 O.2       1 <0>        -0.9298
     34 C23         4.6227    2.5729    2.1338 C.3       1 <0>        -0.5957
     35 H3         -5.0290    3.5753    9.5029 H         1 <0>         0.0704
     36 H4         -4.8501    5.2719   10.0107 H         1 <0>         0.0667
     37 H5         -4.2144    4.7429    8.4345 H         1 <0>         0.0731
     38 H6         -3.6870    4.7171   12.0681 H         1 <0>         0.1318
     39 H7         -1.5301    4.1746   13.1218 H         1 <0>         0.1263
     40 H8          0.3133    3.2687   11.7653 H         1 <0>         0.1265
     41 H9          0.0002    2.8954    9.3527 H         1 <0>         0.1265
     42 H10        -0.8098    1.9070    7.6988 H         1 <0>         0.1022
     43 H11        -0.2357    3.5606    7.3757 H         1 <0>         0.1015
     44 H12         0.3275    1.9932    5.2571 H         1 <0>         0.4194
     45 H13        -2.9746    3.1118   -0.3543 H         1 <0>         0.0846
     46 H14        -3.8751    1.6832    0.2156 H         1 <0>         0.0822
     47 H15        -0.6555    2.6787   -1.2903 H         1 <0>         0.0672
     48 H16        -0.3325    1.1394   -2.1205 H         1 <0>         0.0714
     49 H17         0.0021   -0.0041    0.0020 H         1 <0>         0.0796
     50 H18         1.0091    1.4652    0.0003 H         1 <0>         0.0719
     51 H19        -2.4650    0.9246   -3.2476 H         1 <0>         0.0589
     52 H20        -3.9880    1.2574   -2.3884 H         1 <0>         0.0582
     53 H21        -2.8350    2.5773   -2.6998 H         1 <0>         0.0572
     54 H22         2.0803    2.9965    2.4560 H         1 <0>         0.4088
     55 H23         3.6585    2.6691    4.7939 H         1 <0>         0.0899
     56 H24         3.4708    0.9054    4.9244 H         1 <0>         0.1021
     57 H25         5.7860    0.5136    4.7297 H         1 <0>         0.1440
     58 H26         5.8513    2.1548    5.4493 H         1 <0>         0.1459
     59 H27         4.6958    2.2940    1.0826 H         1 <0>         0.1500
     60 H28         4.3304    3.6174    2.2424 H         1 <0>         0.1462
@<TRIPOS>BOND
     1    1    2 1
     2    1   35 1
     3    1   36 1
     4    1   37 1
     5    2    7 ar
     6    2    3 ar
     7    3    4 ar
     8    3   38 1
     9    4    5 ar
    10    4   39 1
    11    5    6 ar
    12    5   40 1
    13    6    7 ar
    14    6   41 1
    15    7    8 1
    16    8    9 1
    17    9   10 1
    18    9   42 1
    19    9   43 1
    20   10   11 2
    21   10   12 am
    22   12   13 1
    23   12   44 1
    24   13   17 1
    25   13   14 2
    26   14   15 1
    27   14   24 1
    28   15   22 1
    29   15   16 2
    30   16   17 1
    31   16   18 1
    32   18   19 1
    33   18   45 1
    34   18   46 1
    35   19   20 1
    36   19   21 1
    37   19   23 1
    38   21   22 1
    39   21   47 1
    40   21   48 1
    41   22   49 1
    42   22   50 1
    43   23   51 1
    44   23   52 1
    45   23   53 1
    46   24   25 2
    47   24   26 am
    48   26   27 1
    49   26   54 1
    50   27   28 1
    51   27   34 1
    52   27   29 1
    53   29   30 1
    54   29   55 1
    55   29   56 1
    56   30   31 1
    57   30   57 1
    58   30   58 1
    59   31   32 2
    60   31   33 2
    61   31   34 1
    62   34   59 1
    63   34   60 1
@<TRIPOS>MOLECULE
ZINC21046058
   45    47     0     0     0
SMALL
USER_CHARGES

@<TRIPOS>ATOM
      1 C1         -0.0126    1.3748   -0.1792 C.ar      1 <0>        -0.1172
      2 C2          1.1745    2.0810   -0.1820 C.ar      1 <0>        -0.0648
      3 C3          2.3796    1.4110   -0.0183 C.ar      1 <0>         0.1257
      4 C4          2.3872    0.0321    0.1478 C.ar      1 <0>        -0.0413
      5 C5          1.1970   -0.6681    0.1498 C.ar      1 <0>        -0.6196
      6 C6         -0.0017    0.0022   -0.0136 C.ar      1 <0>        -0.0289
      7 S1          1.2055   -2.4175    0.3599 S.o2      1 <0>         2.6560
      8 O1          0.0026   -2.9022   -0.2210 O.2       1 <0>        -0.9765
      9 O2          2.4874   -2.8700   -0.0537 O.2       1 <0>        -0.9809
     10 N1          1.0999   -2.7160    1.9853 N.2       1 <0>        -1.0169
     11 C7          1.0865   -3.9341    2.4196 C.2       1 <0>         0.5360
     12 C8          1.1670   -5.1693    1.5497 C.3       1 <0>        -0.1908
     13 C9          1.5378   -6.3044    2.5312 C.3       1 <0>        -0.1263
     14 C10         0.9989   -5.7610    3.8724 C.3       1 <0>         0.0955
     15 N2          1.0032   -4.2997    3.7347 N.pl3     1 <0>        -0.6847
     16 N3          3.5839    2.1235   -0.0212 N.am      1 <0>        -0.6688
     17 C11         3.6280    3.3746    0.4780 C.2       1 <0>         0.5162
     18 O3          2.6493    3.8477    1.0159 O.2       1 <0>        -0.4881
     19 C12         4.8932    4.1858    0.3677 C.3       1 <0>         0.0399
     20 O4          4.6909    5.4677    0.9659 O.3       1 <0>        -0.2773
     21 C13         5.7430    6.3288    0.9510 C.ar      1 <0>         0.1114
     22 C14         6.9424    5.9497    0.3677 C.ar      1 <0>        -0.1786
     23 C15         8.0105    6.8263    0.3529 C.ar      1 <0>        -0.0567
     24 C16         7.8850    8.0819    0.9199 C.ar      1 <0>        -0.1020
     25 C17         6.6900    8.4638    1.5028 C.ar      1 <0>        -0.0868
     26 C18         5.6162    7.5919    1.5149 C.ar      1 <0>         0.0849
     27 F1          4.4472    7.9664    2.0792 F         1 <0>        -0.1200
     28 Br1         9.3496    9.2779    0.8986 Br        1 <0>        -0.0299
     29 H1         -0.9506    1.8959   -0.3019 H         1 <0>         0.1412
     30 H2          1.1654    3.1532   -0.3118 H         1 <0>         0.1444
     31 H3          3.3229   -0.4920    0.2751 H         1 <0>         0.1448
     32 H4         -0.9312   -0.5478   -0.0118 H         1 <0>         0.1442
     33 H5          0.2030   -5.3696    1.0821 H         1 <0>         0.1263
     34 H6          1.9421   -5.0521    0.7923 H         1 <0>         0.1164
     35 H7          1.0372   -7.2334    2.2585 H         1 <0>         0.1025
     36 H8          2.6180   -6.4442    2.5740 H         1 <0>         0.0912
     37 H9         -0.0140   -6.1242    4.0463 H         1 <0>         0.0845
     38 H10         1.6533   -6.0614    4.6907 H         1 <0>         0.0929
     39 H11         0.9515   -3.6770    4.4766 H         1 <0>         0.4254
     40 H12         4.3871    1.7169   -0.3824 H         1 <0>         0.4164
     41 H13         5.7026    3.6682    0.8826 H         1 <0>         0.1042
     42 H14         5.1533    4.3122   -0.6833 H         1 <0>         0.1054
     43 H15         7.0419    4.9695   -0.0747 H         1 <0>         0.1487
     44 H16         8.9445    6.5306   -0.1015 H         1 <0>         0.1463
     45 H17         6.5943    9.4444    1.9452 H         1 <0>         0.1557
@<TRIPOS>BOND
     1    1    6 ar
     2    1    2 ar
     3    1   29 1
     4    2    3 ar
     5    2   30 1
     6    3    4 ar
     7    3   16 1
     8    4    5 ar
     9    4   31 1
    10    5    6 ar
    11    5    7 1
    12    6   32 1
    13    7    8 2
    14    7    9 2
    15    7   10 1
    16   10   11 2
    17   11   15 1
    18   11   12 1
    19   12   13 1
    20   12   33 1
    21   12   34 1
    22   13   14 1
    23   13   35 1
    24   13   36 1
    25   14   15 1
    26   14   37 1
    27   14   38 1
    28   15   39 1
    29   16   17 am
    30   16   40 1
    31   17   18 2
    32   17   19 1
    33   19   20 1
    34   19   41 1
    35   19   42 1
    36   20   21 1
    37   21   26 ar
    38   21   22 ar
    39   22   23 ar
    40   22   43 1
    41   23   24 ar
    42   23   44 1
    43   24   25 ar
    44   24   28 1
    45   25   26 ar
    46   25   45 1
    47   26   27 1
@<TRIPOS>MOLECULE
ZINC54201110
   42    44     0     0     0
SMALL
USER_CHARGES

@<TRIPOS>ATOM
      1 C1         -0.0167    1.3781    0.0096 C.ar      1 <0>        -0.1125
      2 C2          1.1709    2.0855    0.0021 C.ar      1 <0>        -0.1165
      3 C3          2.3773    1.4107   -0.0130 C.ar      1 <0>        -0.1012
      4 C4          2.3960    0.0285   -0.0201 C.ar      1 <0>        -0.1064
      5 C5          1.2084   -0.6789   -0.0117 C.ar      1 <0>        -0.1004
      6 C6          0.0021   -0.0041    0.0020 C.ar      1 <0>        -0.1196
      7 C7          3.7112   -0.7071   -0.0376 C.3       1 <0>         0.2177
      8 H1          4.4960   -0.0399   -0.3940 H         1 <0>         0.1030
      9 C8          4.0489   -1.1818    1.3772 C.3       1 <0>        -0.1387
     10 C9          5.4192   -1.8089    1.3830 C.2       1 <0>         0.5037
     11 O1          6.0624   -1.8702    0.3566 O.2       1 <0>        -0.4477
     12 N1          5.9299   -2.3017    2.5287 N.am      1 <0>        -0.6162
     13 C10         7.1945   -2.8804    2.5341 C.2       1 <0>         0.2387
     14 N2          8.0424   -3.0351    1.5363 N.2       1 <0>        -0.2985
     15 N3          9.1680   -3.5864    1.6960 N.2       1 <0>        -0.2300
     16 C11         9.5056   -4.0197    2.8941 C.2       1 <0>         0.0076
     17 S1          8.0469   -3.5609    3.8196 S.3       1 <0>         0.0711
     18 N4          3.6115   -1.8645   -0.9302 N.pl3     1 <0>        -1.1039
     19 S2          4.1107   -1.7415   -2.5044 S.o2      1 <0>         2.6939
     20 O2          3.9141   -3.0195   -3.0938 O.2       1 <0>        -0.9577
     21 O3          3.5166   -0.5616   -3.0278 O.2       1 <0>        -0.9478
     22 C12         5.8500   -1.4608   -2.4789 C.ar      1 <0>        -0.6450
     23 C13         6.3410   -0.1694   -2.4314 C.ar      1 <0>        -0.0158
     24 C14         7.7053    0.0512   -2.4110 C.ar      1 <0>        -0.1134
     25 C15         8.5794   -1.0205   -2.4380 C.ar      1 <0>        -0.0286
     26 C16         8.0878   -2.3125   -2.4855 C.ar      1 <0>        -0.0946
     27 C17         6.7232   -2.5323   -2.5006 C.ar      1 <0>         0.0109
     28 Br1        10.4461   -0.7193   -2.4107 Br        1 <0>        -0.0425
     29 H2         -0.9591    1.9053    0.0259 H         1 <0>         0.1230
     30 H3          1.1563    3.1654    0.0076 H         1 <0>         0.1248
     31 H4          3.3051    1.9634   -0.0196 H         1 <0>         0.1239
     32 H5          1.2231   -1.7588   -0.0176 H         1 <0>         0.1212
     33 H6         -0.9258   -0.5567    0.0082 H         1 <0>         0.1237
     34 H7          4.0357   -0.3312    2.0587 H         1 <0>         0.1198
     35 H8          3.3115   -1.9170    1.6995 H         1 <0>         0.1141
     36 H9          5.4155   -2.2527    3.3496 H         1 <0>         0.4285
     37 H10        10.4098   -4.5096    3.2242 H         1 <0>         0.2386
     38 H11         3.2531   -2.7029   -0.5991 H         1 <0>         0.4183
     39 H12         5.6584    0.6673   -2.4107 H         1 <0>         0.1411
     40 H13         8.0887    1.0602   -2.3742 H         1 <0>         0.1365
     41 H14         8.7699   -3.1495   -2.5066 H         1 <0>         0.1373
     42 H15         6.3392   -3.5412   -2.5336 H         1 <0>         0.1393
@<TRIPOS>BOND
     1    1    6 ar
     2    1    2 ar
     3    1   29 1
     4    2    3 ar
     5    2   30 1
     6    3    4 ar
     7    3   31 1
     8    4    5 ar
     9    4    7 1
    10    5    6 ar
    11    5   32 1
    12    6   33 1
    13    7    8 1
    14    7    9 1
    15    7   18 1
    16    9   10 1
    17    9   34 1
    18    9   35 1
    19   10   11 2
    20   10   12 am
    21   12   13 1
    22   12   36 1
    23   13   17 1
    24   13   14 2
    25   14   15 1
    26   15   16 2
    27   16   17 1
    28   16   37 1
    29   18   19 1
    30   18   38 1
    31   19   20 2
    32   19   21 2
    33   19   22 1
    34   22   27 ar
    35   22   23 ar
    36   23   24 ar
    37   23   39 1
    38   24   25 ar
    39   24   40 1
    40   25   26 ar
    41   25   28 1
    42   26   27 ar
    43   26   41 1
    44   27   42 1
@<TRIPOS>MOLECULE
ZINC60094585
   61    64     0     0     0
SMALL
USER_CHARGES

@<TRIPOS>ATOM
      1 C1         -0.0187    1.5258    0.0104 C.3       1 <0>        -0.1492
      2 C2          0.0021   -0.0041    0.0020 C.3       1 <0>        -0.0940
      3 C3         -1.4333   -0.5336    0.0129 C.3       1 <0>        -0.1164
      4 C4         -1.4126   -2.0635    0.0045 C.3       1 <0>        -0.1284
      5 C5         -0.6726   -2.5703    1.2440 C.3       1 <0>         0.1483
      6 C6          0.7628   -2.0407    1.2331 C.3       1 <0>        -0.1327
      7 C7          0.7421   -0.5109    1.2415 C.3       1 <0>        -0.1133
      8 N1         -1.3583   -2.0979    2.4493 N.am      1 <0>        -0.7188
      9 C8         -1.2353   -2.7794    3.6055 C.2       1 <0>         0.5158
     10 O1         -0.5569   -3.7839    3.6481 O.2       1 <0>        -0.5118
     11 C9         -1.9406   -2.2934    4.8454 C.3       1 <0>         0.0409
     12 O2         -1.6575   -3.1774    5.9319 O.3       1 <0>        -0.3192
     13 C10        -2.2171   -2.8822    7.1232 C.2       1 <0>         0.5349
     14 O3         -2.9262   -1.9004    7.2355 O.2       1 <0>        -0.4905
     15 C11        -1.9708   -3.7438    8.2812 C.2       1 <0>        -0.2129
     16 C12        -0.8548   -3.5037    9.1801 C.2       1 <0>        -0.0559
     17 C13        -0.7653   -4.3864   10.1979 C.2       1 <0>        -0.2212
     18 S1         -2.1252   -5.4912    9.9556 S.3       1 <0>         0.3077
     19 C14        -2.7965   -4.8206    8.5701 C.2       1 <0>         0.0468
     20 N2         -3.9158   -5.2461    7.8744 N.am      1 <0>        -0.6161
     21 C15        -4.6058   -6.3223    8.3012 C.2       1 <0>         0.5648
     22 O4         -4.2456   -6.9195    9.2969 O.2       1 <0>        -0.4890
     23 C16        -5.8003   -6.7763    7.5589 C.ar      1 <0>        -0.1921
     24 C17        -6.5293   -7.8896    7.9952 C.ar      1 <0>        -0.0065
     25 C18        -7.6400   -8.2732    7.2649 C.ar      1 <0>        -0.1753
     26 C19        -7.9916   -7.5519    6.1377 C.ar      1 <0>         0.1325
     27 N3         -7.2855   -6.5072    5.7499 N.ar      1 <0>        -0.4830
     28 C20        -6.2242   -6.0994    6.4145 C.ar      1 <0>         0.1407
     29 C21         0.2676   -4.4076   11.2821 C.3       1 <0>        -0.0346
     30 C22         1.4330   -3.5028   10.8556 C.3       1 <0>        -0.1156
     31 C23         0.8687   -2.1678   10.3612 C.3       1 <0>        -0.1183
     32 C24         0.1480   -2.3696    9.0263 C.3       1 <0>        -0.0633
     33 H1          1.0039    1.9031    0.0027 H         1 <0>         0.0552
     34 H2         -0.5459    1.8868   -0.8726 H         1 <0>         0.0552
     35 H3         -0.5289    1.8773    0.9072 H         1 <0>         0.0536
     36 H4          0.5123   -0.3556   -0.8948 H         1 <0>         0.0722
     37 H5         -1.9435   -0.1821    0.9097 H         1 <0>         0.0593
     38 H6         -1.9605   -0.1726   -0.8702 H         1 <0>         0.0685
     39 H7         -2.4352   -2.4408    0.0122 H         1 <0>         0.0709
     40 H8         -0.9024   -2.4150   -0.8923 H         1 <0>         0.0818
     41 H9         -0.6578   -3.6602    1.2380 H         1 <0>         0.0905
     42 H10         1.2900   -2.4018    2.1162 H         1 <0>         0.0689
     43 H11         1.2730   -2.3923    0.3363 H         1 <0>         0.0743
     44 H12         1.7647   -0.1336    1.2338 H         1 <0>         0.0635
     45 H13         0.2319   -0.1594    2.1383 H         1 <0>         0.0605
     46 H14        -1.9008   -1.2945    2.4152 H         1 <0>         0.4010
     47 H15        -1.5918   -1.2907    5.0924 H         1 <0>         0.1006
     48 H16        -3.0156   -2.2704    4.6664 H         1 <0>         0.0990
     49 H17        -4.2032   -4.7695    7.0800 H         1 <0>         0.4171
     50 H18        -6.2320   -8.4348    8.8788 H         1 <0>         0.1537
     51 H19        -8.2261   -9.1270    7.5711 H         1 <0>         0.1502
     52 H20        -8.8581   -7.8493    5.5658 H         1 <0>         0.1678
     53 H21        -5.6744   -5.2367    6.0682 H         1 <0>         0.1544
     54 H22        -0.1662   -4.0351   12.2101 H         1 <0>         0.0842
     55 H23         0.6273   -5.4262   11.4270 H         1 <0>         0.0832
     56 H24         2.0903   -3.3282   11.7075 H         1 <0>         0.0753
     57 H25         1.9927   -3.9824   10.0527 H         1 <0>         0.0697
     58 H26         0.1657   -1.7771   11.0968 H         1 <0>         0.0681
     59 H27         1.6843   -1.4569   10.2284 H         1 <0>         0.0716
     60 H28         0.8734   -2.6251    8.2540 H         1 <0>         0.0820
     61 H29        -0.3752   -1.4538    8.7512 H         1 <0>         0.0737
@<TRIPOS>BOND
     1    1    2 1
     2    1   33 1
     3    1   34 1
     4    1   35 1
     5    2    7 1
     6    2    3 1
     7    2   36 1
     8    3    4 1
     9    3   37 1
    10    3   38 1
    11    4    5 1
    12    4   39 1
    13    4   40 1
    14    5    6 1
    15    5    8 1
    16    5   41 1
    17    6    7 1
    18    6   42 1
    19    6   43 1
    20    7   44 1
    21    7   45 1
    22    8    9 am
    23    8   46 1
    24    9   10 2
    25    9   11 1
    26   11   12 1
    27   11   47 1
    28   11   48 1
    29   12   13 1
    30   13   14 2
    31   13   15 1
    32   15   19 2
    33   15   16 1
    34   16   32 1
    35   16   17 2
    36   17   18 1
    37   17   29 1
    38   18   19 1
    39   19   20 1
    40   20   21 am
    41   20   49 1
    42   21   22 2
    43   21   23 1
    44   23   28 ar
    45   23   24 ar
    46   24   25 ar
    47   24   50 1
    48   25   26 ar
    49   25   51 1
    50   26   27 ar
    51   26   52 1
    52   27   28 ar
    53   28   53 1
    54   29   30 1
    55   29   54 1
    56   29   55 1
    57   30   31 1
    58   30   56 1
    59   30   57 1
    60   31   32 1
    61   31   58 1
    62   31   59 1
    63   32   60 1
    64   32   61 1
@<TRIPOS>MOLECULE
ZINC11997493
   63    67     0     0     0
SMALL
USER_CHARGES
methyl 2-[(1S)-1-[2-(1H-indol-3-yl)ethylcarbamoyl]6-azaspiro[2.5]octane-6-carbonyl]benzoate
@<TRIPOS>ATOM
      1 C1          3.3089    1.0633   -6.0070 C.3       1 <0>         0.0385
      2 O1          3.9393    1.8542   -4.9651 O.3       1 <0>        -0.3563
      3 C2          3.1813    2.1777   -3.8997 C.2       1 <0>         0.4957
      4 O2          2.0254    1.8093   -3.8425 O.2       1 <0>        -0.4718
      5 C3          3.7563    2.9812   -2.8000 C.ar      1 <0>        -0.0872
      6 C4          5.1103    3.3069   -2.8042 C.ar      1 <0>        -0.0645
      7 C5          5.6432    4.0587   -1.7742 C.ar      1 <0>        -0.1138
      8 C6          4.8391    4.4919   -0.7348 C.ar      1 <0>        -0.0853
      9 C7          3.4919    4.1826   -0.7167 C.ar      1 <0>        -0.1022
     10 C8          2.9387    3.4219   -1.7428 C.ar      1 <0>        -0.0645
     11 C9          1.4983    3.0840   -1.7252 C.2       1 <0>         0.5660
     12 O3          0.7822    3.4278   -2.6450 O.2       1 <0>        -0.5046
     13 N1          0.9804    2.3949   -0.6892 N.am      1 <0>        -0.6049
     14 C10        -0.4655    2.1518   -0.6074 C.3       1 <0>         0.1188
     15 C11        -0.7086    0.6402   -0.5201 C.3       1 <0>        -0.0966
     16 C12         0.1616    0.0651    0.6018 C.3       1 <0>        -0.0990
     17 C13         1.6595    0.3609    0.4779 C.3       1 <0>        -0.1000
     18 C14         1.8556    1.8781    0.3708 C.3       1 <0>         0.1102
     19 C15        -0.4370    0.0109    2.0071 C.3       1 <0>        -0.1347
     20 C16        -0.2503   -1.2779    1.2033 C.3       1 <0>        -0.1836
     21 H1         -1.1446   -1.7556    0.8031 H         1 <0>         0.1289
     22 C17         0.8493   -2.2139    1.6345 C.2       1 <0>         0.5457
     23 O4          1.2584   -2.1839    2.7758 O.2       1 <0>        -0.5363
     24 N2          1.3782   -3.0843    0.7518 N.am      1 <0>        -0.7280
     25 C18         2.4471   -3.9941    1.1709 C.3       1 <0>         0.1248
     26 C19         2.8652   -4.8693   -0.0123 C.3       1 <0>        -0.0523
     27 C20         3.9648   -5.8052    0.4188 C.2       1 <0>        -0.1725
     28 C21         5.2845   -5.6076    0.2730 C.2       1 <0>         0.0610
     29 N3          5.9751   -6.6716    0.7862 N.pl3     1 <0>        -0.5947
     30 H2          6.9414   -6.7553    0.7979 H         1 <0>         0.4170
     31 C22         5.0940   -7.6077    1.2794 C.ar      1 <0>         0.0951
     32 C23         3.7960   -7.1061    1.0709 C.ar      1 <0>        -0.1005
     33 C24         2.6878   -7.8516    1.4765 C.ar      1 <0>        -0.0713
     34 C25         2.8696   -9.0671    2.0742 C.ar      1 <0>        -0.1445
     35 C26         4.1478   -9.5662    2.2821 C.ar      1 <0>        -0.0977
     36 C27         5.2556   -8.8468    1.8900 C.ar      1 <0>        -0.1303
     37 H3          2.4547    1.6077   -6.4097 H         1 <0>         0.0655
     38 H4          4.0275    0.8736   -6.8042 H         1 <0>         0.1042
     39 H5          2.9711    0.1150   -5.5890 H         1 <0>         0.0634
     40 H6          5.7437    2.9724   -3.6125 H         1 <0>         0.1454
     41 H7          6.6936    4.3098   -1.7807 H         1 <0>         0.1387
     42 H8          5.2657    5.0788    0.0651 H         1 <0>         0.1388
     43 H9          2.8695    4.5277    0.0956 H         1 <0>         0.1389
     44 H10        -0.9537    2.5495   -1.4971 H         1 <0>         0.0973
     45 H11        -0.8681    2.6385    0.2809 H         1 <0>         0.0717
     46 H12        -1.7595    0.4512   -0.3008 H         1 <0>         0.0807
     47 H13        -0.4407    0.1717   -1.4671 H         1 <0>         0.0761
     48 H14         2.1800   -0.0135    1.3594 H         1 <0>         0.0797
     49 H15         2.0549   -0.1227   -0.4153 H         1 <0>         0.0723
     50 H16         1.5967    2.3478    1.3197 H         1 <0>         0.0755
     51 H17         2.8955    2.0957    0.1271 H         1 <0>         0.0868
     52 H18         0.2355    0.1818    2.8477 H         1 <0>         0.1067
     53 H19        -1.4542    0.3811    2.1356 H         1 <0>         0.1053
     54 H20         1.0510   -3.1083   -0.1611 H         1 <0>         0.4014
     55 H21         3.3038   -3.4143    1.5146 H         1 <0>         0.0669
     56 H22         2.0880   -4.6273    1.9822 H         1 <0>         0.0691
     57 H23         2.0085   -5.4491   -0.3560 H         1 <0>         0.0768
     58 H24         3.2243   -4.2361   -0.8236 H         1 <0>         0.0756
     59 H25         5.7346   -4.7366   -0.1800 H         1 <0>         0.1699
     60 H26         1.6901   -7.4693    1.3183 H         1 <0>         0.1202
     61 H27         2.0118   -9.6438    2.3872 H         1 <0>         0.1228
     62 H28         4.2754  -10.5284    2.7557 H         1 <0>         0.1257
     63 H29         6.2462   -9.2437    2.0565 H         1 <0>         0.1199
@<TRIPOS>BOND
     1    1    2 1
     2    1   37 1
     3    1   38 1
     4    1   39 1
     5    2    3 1
     6    3    4 2
     7    3    5 1
     8    5   10 ar
     9    5    6 ar
    10    6    7 ar
    11    6   40 1
    12    7    8 ar
    13    7   41 1
    14    8    9 ar
    15    8   42 1
    16    9   10 ar
    17    9   43 1
    18   10   11 1
    19   11   12 2
    20   11   13 am
    21   13   18 1
    22   13   14 1
    23   14   15 1
    24   14   44 1
    25   14   45 1
    26   15   16 1
    27   15   46 1
    28   15   47 1
    29   16   20 1
    30   16   17 1
    31   16   19 1
    32   17   18 1
    33   17   48 1
    34   17   49 1
    35   18   50 1
    36   18   51 1
    37   19   20 1
    38   19   52 1
    39   19   53 1
    40   20   21 1
    41   20   22 1
    42   22   23 2
    43   22   24 am
    44   24   25 1
    45   24   54 1
    46   25   26 1
    47   25   55 1
    48   25   56 1
    49   26   27 1
    50   26   57 1
    51   26   58 1
    52   27   32 1
    53   27   28 2
    54   28   29 1
    55   28   59 1
    56   29   30 1
    57   29   31 1
    58   31   36 ar
    59   31   32 ar
    60   32   33 ar
    61   33   34 ar
    62   33   60 1
    63   34   35 ar
    64   34   61 1
    65   35   36 ar
    66   35   62 1
    67   36   63 1
@<TRIPOS>MOLECULE
ZINC15045546
   53    55     0     0     0
SMALL
USER_CHARGES
(2S)-2-[(5Z)-5-[(4-hydroxy-3,5-dimethoxy-phenyl)methylene]-4-oxo-2-thioxo-thiazolidin-3-yl]-N-(o-tolyl)propanamide
@<TRIPOS>ATOM
      1 C1         -3.6585    1.9707    3.2137 C.3       1 <0>        -0.1160
      2 C2         -3.7410    0.8159    2.2489 C.ar      1 <0>        -0.1187
      3 C3         -4.8280   -0.0359    2.2815 C.ar      1 <0>        -0.1004
      4 C4         -4.9017   -1.0989    1.4005 C.ar      1 <0>        -0.1336
      5 C5         -3.8905   -1.3102    0.4809 C.ar      1 <0>        -0.1037
      6 C6         -2.8038   -0.4592    0.4398 C.ar      1 <0>        -0.1312
      7 C7         -2.7269    0.6098    1.3232 C.ar      1 <0>         0.1470
      8 N1         -1.6271    1.4740    1.2840 N.am      1 <0>        -0.6568
      9 C8         -0.4831    1.0822    0.6890 C.2       1 <0>         0.5149
     10 O1         -0.3632   -0.0595    0.2976 O.2       1 <0>        -0.4914
     11 C9          0.6449    2.0644    0.5043 C.3       1 <0>         0.0986
     12 H1          0.9708    2.4305    1.4779 H         1 <0>         0.1442
     13 C10         0.1630    3.2403   -0.3476 C.3       1 <0>        -0.1804
     14 N2          1.7649    1.4010   -0.1679 N.am      1 <0>        -0.5081
     15 C11         2.9367    1.3348    0.4415 C.2       1 <0>         0.5507
     16 O2          3.1098    1.8116    1.5479 O.2       1 <0>        -0.4593
     17 C12         4.0245    0.6537   -0.2885 C.2       1 <0>        -0.2346
     18 C13         5.3126    0.4381    0.0819 C.2       1 <0>         0.0914
     19 C14         6.1778   -0.4210   -0.7363 C.ar      1 <0>        -0.0310
     20 C15         5.6129   -1.3675   -1.5997 C.ar      1 <0>        -0.2056
     21 C16         6.4305   -2.1698   -2.3726 C.ar      1 <0>         0.1469
     22 C17         7.8149   -2.0464   -2.2845 C.ar      1 <0>         0.0709
     23 C18         8.3809   -1.1102   -1.4228 C.ar      1 <0>         0.1404
     24 C19         7.5701   -0.2998   -0.6510 C.ar      1 <0>        -0.1900
     25 O3          9.7333   -0.9935   -1.3403 O.3       1 <0>        -0.2987
     26 C20        10.2460   -0.0132   -0.4358 C.3       1 <0>         0.0214
     27 O4          8.6159   -2.8417   -3.0421 O.3       1 <0>        -0.4690
     28 O5          5.8826   -3.0852   -3.2160 O.3       1 <0>        -0.2965
     29 C21         4.4561   -3.1582   -3.2562 C.3       1 <0>         0.0191
     30 S1          3.1791    0.1915   -1.7942 S.3       1 <0>         0.0742
     31 C22         1.5760    0.8670   -1.3917 C.2       1 <0>         0.2678
     32 S2          0.1461    0.8447   -2.3329 S.2       1 <0>        -0.2922
     33 H2         -4.1323    2.8474    2.7723 H         1 <0>         0.0727
     34 H3         -4.1707    1.7081    4.1393 H         1 <0>         0.0737
     35 H4         -2.6127    2.1916    3.4273 H         1 <0>         0.0601
     36 H5         -5.6191    0.1262    2.9986 H         1 <0>         0.1259
     37 H6         -5.7506   -1.7659    1.4307 H         1 <0>         0.1230
     38 H7         -3.9507   -2.1419   -0.2055 H         1 <0>         0.1250
     39 H8         -2.0143   -0.6249   -0.2783 H         1 <0>         0.1563
     40 H9         -1.6881    2.3551    1.6852 H         1 <0>         0.4120
     41 H10        -0.6703    3.7338    0.1525 H         1 <0>         0.0890
     42 H11         0.9788    3.9507   -0.4811 H         1 <0>         0.0786
     43 H12        -0.1630    2.8741   -1.3211 H         1 <0>         0.1028
     44 H13         5.7011    0.8984    0.9783 H         1 <0>         0.1686
     45 H14         4.5395   -1.4673   -1.6647 H         1 <0>         0.1464
     46 H15         8.0098    0.4257    0.0173 H         1 <0>         0.1467
     47 H16         9.9094   -0.2408    0.5756 H         1 <0>         0.0601
     48 H17        11.3355   -0.0243   -0.4673 H         1 <0>         0.1072
     49 H18         9.8841    0.9732   -0.7258 H         1 <0>         0.0603
     50 H19         8.8605   -3.6742   -2.6152 H         1 <0>         0.3894
     51 H20         4.0770   -3.4089   -2.2655 H         1 <0>         0.0601
     52 H21         4.0516   -2.1948   -3.5669 H         1 <0>         0.0615
     53 H22         4.1514   -3.9264   -3.9669 H         1 <0>         0.1104
@<TRIPOS>BOND
     1    1    2 1
     2    1   33 1
     3    1   34 1
     4    1   35 1
     5    2    7 ar
     6    2    3 ar
     7    3    4 ar
     8    3   36 1
     9    4    5 ar
    10    4   37 1
    11    5    6 ar
    12    5   38 1
    13    6    7 ar
    14    6   39 1
    15    7    8 1
    16    8    9 am
    17    8   40 1
    18    9   10 2
    19    9   11 1
    20   11   12 1
    21   11   13 1
    22   11   14 1
    23   13   41 1
    24   13   42 1
    25   13   43 1
    26   14   31 1
    27   14   15 am
    28   15   16 2
    29   15   17 1
    30   17   18 2
    31   17   30 1
    32   18   19 1
    33   18   44 1
    34   19   24 ar
    35   19   20 ar
    36   20   21 ar
    37   20   45 1
    38   21   22 ar
    39   21   28 1
    40   22   23 ar
    41   22   27 1
    42   23   24 ar
    43   23   25 1
    44   24   46 1
    45   25   26 1
    46   26   47 1
    47   26   48 1
    48   26   49 1
    49   27   50 1
    50   28   29 1
    51   29   51 1
    52   29   52 1
    53   29   53 1
    54   30   31 1
    55   31   32 2
@<TRIPOS>MOLECULE
ZINC31728549
   49    50     0     0     0
SMALL
USER_CHARGES
N-[2-chloro-4-[[(2R)-2-(2,2,2-trifluoroethoxy)propanoyl]amino]phenyl]-3-methylsulfonyl-benzamide
@<TRIPOS>ATOM
      1 C1         -3.2001    3.4726    1.4981 C.3       1 <0>        -0.1757
      2 C2         -2.0445    4.2561    0.8724 C.3       1 <0>         0.0770
      3 H1         -2.2619    4.5403   -0.1678 H         1 <0>         0.0997
      4 C3         -0.7843    3.4326    0.9404 C.2       1 <0>         0.5158
      5 O1          0.1496    3.8078    1.6174 O.2       1 <0>        -0.4889
      6 N1         -0.6949    2.2791    0.2490 N.am      1 <0>        -0.6823
      7 C4          0.5139    1.5721    0.2195 C.ar      1 <0>         0.1521
      8 C5          1.7206    2.2598    0.2159 C.ar      1 <0>        -0.0943
      9 C6          2.9122    1.5638    0.1812 C.ar      1 <0>        -0.0881
     10 C7          2.9049    0.1754    0.1498 C.ar      1 <0>         0.1507
     11 C8          1.6978   -0.5132    0.1534 C.ar      1 <0>        -0.0442
     12 C9          0.5055    0.1840    0.1882 C.ar      1 <0>        -0.1161
     13 Cl1         1.6880   -2.2487    0.1136 Cl        1 <0>        -0.0581
     14 N2          4.1139   -0.5306    0.1141 N.am      1 <0>        -0.6798
     15 C10         5.1928   -0.0528    0.7653 C.2       1 <0>         0.5632
     16 O2          5.0918    0.9362    1.4650 O.2       1 <0>        -0.5064
     17 C11         6.4990   -0.7313    0.6287 C.ar      1 <0>        -0.1534
     18 C12         6.6184   -1.8673   -0.1740 C.ar      1 <0>        -0.0327
     19 C13         7.8402   -2.4953   -0.2975 C.ar      1 <0>        -0.1414
     20 C14         8.9461   -2.0018    0.3721 C.ar      1 <0>         0.0041
     21 C15         8.8347   -0.8766    1.1691 C.ar      1 <0>        -0.6668
     22 C16         7.6195   -0.2357    1.2971 C.ar      1 <0>         0.0371
     23 S1         10.2491   -0.2566    2.0174 S.o2      1 <0>         2.4990
     24 O3          9.7236    0.4309    3.1445 O.2       1 <0>        -0.9300
     25 O4         11.0942   -1.3864    2.1872 O.2       1 <0>        -0.9336
     26 C17        11.0053    0.9214    0.8637 C.3       1 <0>        -0.6522
     27 O5         -1.8544    5.4779    1.5888 O.3       1 <0>        -0.3460
     28 C18        -2.6166    6.5744    1.0804 C.3       1 <0>         0.0122
     29 C19        -2.3360    7.8230    1.9191 C.3       1 <0>         0.4636
     30 F1         -0.9732    8.1322    1.8535 F         1 <0>        -0.1722
     31 F2         -3.0823    8.8965    1.4213 F         1 <0>        -0.1752
     32 F3         -2.6959    7.5818    3.2493 F         1 <0>        -0.1735
     33 H2         -4.1200    4.0737    1.4485 H         1 <0>         0.0771
     34 H3         -2.9647    3.2487    2.5490 H         1 <0>         0.0794
     35 H4         -3.3464    2.5321    0.9467 H         1 <0>         0.0796
     36 H5         -1.5713    1.8929   -0.2921 H         1 <0>         0.4370
     37 H6          1.7267    3.3395    0.2403 H         1 <0>         0.1429
     38 H7          3.8502    2.0990    0.1784 H         1 <0>         0.1471
     39 H8         -0.4328   -0.3506    0.1906 H         1 <0>         0.1427
     40 H9          4.1829   -1.4751   -0.4455 H         1 <0>         0.4330
     41 H10         5.7561   -2.2532   -0.6974 H         1 <0>         0.1343
     42 H11         7.9340   -3.3740   -0.9185 H         1 <0>         0.1442
     43 H12         9.9006   -2.4971    0.2717 H         1 <0>         0.1505
     44 H13         7.5348    0.6452    1.9161 H         1 <0>         0.1578
     45 H14        11.9046    1.3580    1.3225 H         1 <0>         0.1376
     46 H15        10.2863    1.7212    0.6326 H         1 <0>         0.1346
     47 H16        11.2834    0.3992   -0.0636 H         1 <0>         0.1338
     48 H17        -2.3335    6.7640    0.0345 H         1 <0>         0.1018
     49 H18        -3.6882    6.3313    1.1319 H         1 <0>         0.1028
@<TRIPOS>BOND
     1    1    2 1
     2    1   33 1
     3    1   34 1
     4    1   35 1
     5    2    3 1
     6    2    4 1
     7    2   27 1
     8    4    5 2
     9    4    6 am
    10    6    7 1
    11    6   36 1
    12    7   12 ar
    13    7    8 ar
    14    8    9 ar
    15    8   37 1
    16    9   10 ar
    17    9   38 1
    18   10   11 ar
    19   10   14 1
    20   11   12 ar
    21   11   13 1
    22   12   39 1
    23   14   15 am
    24   14   40 1
    25   15   16 2
    26   15   17 1
    27   17   22 ar
    28   17   18 ar
    29   18   19 ar
    30   18   41 1
    31   19   20 ar
    32   19   42 1
    33   20   21 ar
    34   20   43 1
    35   21   22 ar
    36   21   23 1
    37   22   44 1
    38   23   24 2
    39   23   25 2
    40   23   26 1
    41   26   45 1
    42   26   46 1
    43   26   47 1
    44   27   28 1
    45   28   29 1
    46   28   48 1
    47   28   49 1
    48   29   30 1
    49   29   31 1
    50   29   32 1
@<TRIPOS>MOLECULE
ZINC33933205
   54    58     0     0     0
SMALL
USER_CHARGES

@<TRIPOS>ATOM
      1 C1          2.0986   -2.2196   -3.5596 C.ar      1 <0>        -0.1143
      2 C2          3.2856   -1.4898   -3.5922 C.ar      1 <0>        -0.1086
      3 C3          3.8166   -0.9643   -2.4548 C.ar      1 <0>        -0.1121
      4 C4          3.1604   -1.1580   -1.2270 C.ar      1 <0>        -0.0393
      5 C5          1.9530   -1.8997   -1.1939 C.ar      1 <0>        -0.0481
      6 C6          1.4356   -2.4274   -2.3894 C.ar      1 <0>        -0.1039
      7 C7          1.2967   -2.0930    0.0333 C.ar      1 <0>        -0.1011
      8 C8          1.8276   -1.5669    1.1711 C.ar      1 <0>        -0.1131
      9 C9          3.0142   -0.8375    1.1384 C.ar      1 <0>        -0.1058
     10 C10         3.6777   -0.6304   -0.0320 C.ar      1 <0>        -0.0886
     11 C11         4.9603    0.1606   -0.0459 C.3       1 <0>         0.1489
     12 N1          5.2084    0.7121    1.2884 N.am      1 <0>        -0.5956
     13 C12         4.6795    1.8993    1.7311 C.2       1 <0>         0.5871
     14 O1          3.7899    2.5478    1.2236 O.2       1 <0>        -0.4416
     15 C13         5.4160    2.2049    2.9325 C.3       1 <0>        -0.2020
     16 H1          6.3927    2.4940    2.5445 H         1 <0>         0.1355
     17 C14         5.3064    3.0140    4.1587 C.3       1 <0>         0.1459
     18 H2          4.3597    2.8261    4.6654 H         1 <0>         0.1613
     19 N2          6.4623    2.5061    4.9755 N.4       1 <0>        -0.5072
     20 C15         6.7982    1.1348    4.4885 C.3       1 <0>        -0.0344
     21 H3          6.8255    0.4341    5.3230 H         1 <0>         0.1563
     22 C16         5.6525    0.7630    3.5350 C.3       1 <0>        -0.1230
     23 H4          4.7824    0.3343    4.0321 H         1 <0>         0.1583
     24 C17         5.9863    0.0977    2.2286 C.2       1 <0>         0.5353
     25 O2          6.7833   -0.7976    2.0474 O.2       1 <0>        -0.3752
     26 C18         8.1247    1.1455    3.7734 C.2       1 <0>         0.4819
     27 O3          8.7636    2.1805    3.6894 O.co2     1 <0>        -0.6656
     28 O4          8.5589    0.1191    3.2790 O.co2     1 <0>        -0.5915
     29 C19         5.4672    4.4805    3.8516 C.ar      1 <0>        -0.0999
     30 C20         6.7300    5.0137    3.6691 C.ar      1 <0>        -0.1355
     31 C21         6.8809    6.3587    3.3872 C.ar      1 <0>        -0.0595
     32 C22         5.7697    7.1737    3.2875 C.ar      1 <0>        -0.1692
     33 C23         4.5019    6.6414    3.4702 C.ar      1 <0>         0.1153
     34 C24         4.3528    5.2899    3.7470 C.ar      1 <0>        -0.0856
     35 O5          3.4074    7.4410    3.3726 O.3       1 <0>        -0.3072
     36 C25         3.6360    8.8208    3.0795 C.3       1 <0>         0.6052
     37 F1          4.2947    8.9335    1.8504 F         1 <0>        -0.1615
     38 F2          2.4109    9.4931    3.0154 F         1 <0>        -0.1256
     39 F3          4.4264    9.3865    4.0857 F         1 <0>        -0.1627
     40 H5          1.6965   -2.6224   -4.4775 H         1 <0>         0.1253
     41 H6          3.7918   -1.3395   -4.5343 H         1 <0>         0.1259
     42 H7          4.7375   -0.4016   -2.4952 H         1 <0>         0.1275
     43 H8          0.5166   -2.9947   -2.3795 H         1 <0>         0.1289
     44 H9          0.3758   -2.6557    0.0737 H         1 <0>         0.1295
     45 H10         1.3211   -1.7169    2.1131 H         1 <0>         0.1246
     46 H11         3.4138   -0.4305    2.0556 H         1 <0>         0.1098
     47 H12         5.7865   -0.4917   -0.3288 H         1 <0>         0.1160
     48 H13         4.8773    0.9748   -0.7659 H         1 <0>         0.1063
     49 H14         7.2580    3.1151    4.8571 H         1 <0>         0.4333
     50 H15         7.5999    4.3784    3.7473 H         1 <0>         0.1506
     51 H16         7.8682    6.7727    3.2451 H         1 <0>         0.1479
     52 H17         5.8882    8.2245    3.0680 H         1 <0>         0.1430
     53 H18         3.3665    4.8721    3.8849 H         1 <0>         0.1512
     54 H19         6.2018    2.4684    5.9496 H         1 <0>         0.4268
@<TRIPOS>BOND
     1    1    6 ar
     2    1    2 ar
     3    1   40 1
     4    2    3 ar
     5    2   41 1
     6    3    4 ar
     7    3   42 1
     8    4   10 ar
     9    4    5 ar
    10    5    6 ar
    11    5    7 ar
    12    6   43 1
    13    7    8 ar
    14    7   44 1
    15    8    9 ar
    16    8   45 1
    17    9   10 ar
    18    9   46 1
    19   10   11 1
    20   11   12 1
    21   11   47 1
    22   11   48 1
    23   12   24 am
    24   12   13 am
    25   13   14 2
    26   13   15 1
    27   15   16 1
    28   15   22 1
    29   15   17 1
    30   17   18 1
    31   17   19 1
    32   17   29 1
    33   19   20 1
    34   19   49 1
    35   19   54 1
    36   20   21 1
    37   20   22 1
    38   20   26 1
    39   22   23 1
    40   22   24 1
    41   24   25 2
    42   26   27 2
    43   26   28 1
    44   29   34 ar
    45   29   30 ar
    46   30   31 ar
    47   30   50 1
    48   31   32 ar
    49   31   51 1
    50   32   33 ar
    51   32   52 1
    52   33   34 ar
    53   33   35 1
    54   34   53 1
    55   35   36 1
    56   36   37 1
    57   36   38 1
    58   36   39 1
@<TRIPOS>MOLECULE
ZINC14428268
   58    60     0     0     0
SMALL
USER_CHARGES

@<TRIPOS>ATOM
      1 C1         -2.7083   -0.5058   -0.5779 C.3       1 <0>        -0.1010
      2 C2         -1.3178   -1.0589   -0.3996 C.2       1 <0>         0.1865
      3 C3         -0.2771   -0.8625   -1.2399 C.2       1 <0>        -0.0868
      4 C4          0.8717   -1.5765   -0.6815 C.2       1 <0>         0.5450
      5 O1          1.9912   -1.6334   -1.1574 O.2       1 <0>        -0.5092
      6 N1          0.4541   -2.1598    0.4612 N.am      1 <0>        -0.3670
      7 N2         -0.8960   -1.8395    0.6439 N.pl3     1 <0>        -0.3923
      8 C5         -1.7266   -2.2725    1.7703 C.3       1 <0>         0.0971
      9 C6          1.2351   -2.9436    1.3162 C.ar      1 <0>         0.1484
     10 C7          0.7758   -4.1853    1.7359 C.ar      1 <0>        -0.1269
     11 C8          1.5497   -4.9569    2.5804 C.ar      1 <0>        -0.1026
     12 C9          2.7806   -4.4943    3.0082 C.ar      1 <0>        -0.1162
     13 C10         3.2407   -3.2582    2.5926 C.ar      1 <0>        -0.0998
     14 C11         2.4745   -2.4844    1.7432 C.ar      1 <0>        -0.1027
     15 N3         -0.2953   -0.1105   -2.4313 N.am      1 <0>        -0.6323
     16 C12        -0.0117   -0.7044   -3.6075 C.2       1 <0>         0.5356
     17 O2          0.3529   -1.8613   -3.6305 O.2       1 <0>        -0.4879
     18 C13        -0.1474    0.0686   -4.8940 C.3       1 <0>        -0.1100
     19 H1         -0.9892    0.7568   -4.8172 H         1 <0>         0.1095
     20 C14         1.1365    0.8599   -5.1514 C.3       1 <0>        -0.1441
     21 S1         -0.4322   -1.0845   -6.2651 S.3       1 <0>        -0.0954
     22 C15        -0.7227   -0.0047   -7.6935 C.3       1 <0>        -0.1496
     23 C16        -0.9763   -0.8474   -8.9168 C.2       1 <0>         0.5313
     24 O3         -0.9625   -2.0573   -8.8333 O.2       1 <0>        -0.4877
     25 N4         -1.2185   -0.2565  -10.1037 N.am      1 <0>        -0.6708
     26 C17        -1.5696   -1.0334  -11.2133 C.ar      1 <0>         0.1657
     27 C18        -1.1726   -0.6458  -12.4873 C.ar      1 <0>        -0.1501
     28 C19        -1.5190   -1.4117  -13.5838 C.ar      1 <0>        -0.0785
     29 C20        -2.2611   -2.5651  -13.4180 C.ar      1 <0>        -0.1493
     30 C21        -2.6616   -2.9587  -12.1464 C.ar      1 <0>        -0.0637
     31 C22        -2.3095   -2.1940  -11.0419 C.ar      1 <0>        -0.1024
     32 S2         -3.6085   -4.4295  -11.9354 S.3       1 <0>        -0.1082
     33 C23        -3.8057   -5.0700  -13.6211 C.3       1 <0>        -0.1465
     34 H2         -2.7751    0.4708   -0.0985 H         1 <0>         0.0936
     35 H3         -2.9253   -0.4042   -1.6412 H         1 <0>         0.0955
     36 H4         -3.4302   -1.1840   -0.1229 H         1 <0>         0.0829
     37 H5         -2.7549   -1.9492    1.6089 H         1 <0>         0.1057
     38 H6         -1.6954   -3.3593    1.8481 H         1 <0>         0.0778
     39 H7         -1.3474   -1.8312    2.6921 H         1 <0>         0.0757
     40 H8         -0.1857   -4.5470    1.4024 H         1 <0>         0.1263
     41 H9          1.1929   -5.9224    2.9074 H         1 <0>         0.1323
     42 H10         3.3839   -5.0996    3.6686 H         1 <0>         0.1306
     43 H11         4.2022   -2.8995    2.9290 H         1 <0>         0.1337
     44 H12         2.8367   -1.5214    1.4148 H         1 <0>         0.1300
     45 H13        -0.5118    0.8347   -2.4050 H         1 <0>         0.4056
     46 H14         1.9783    0.1716   -5.2282 H         1 <0>         0.0795
     47 H15         1.0383    1.4190   -6.0820 H         1 <0>         0.0683
     48 H16         1.3077    1.5527   -4.3276 H         1 <0>         0.0712
     49 H17        -1.5900    0.6268   -7.5011 H         1 <0>         0.1156
     50 H18         0.1535    0.6220   -7.8593 H         1 <0>         0.1160
     51 H19        -1.1494    0.7072  -10.1888 H         1 <0>         0.4139
     52 H20        -0.5927    0.2555  -12.6206 H         1 <0>         0.1295
     53 H21        -1.2093   -1.1078  -14.5728 H         1 <0>         0.1315
     54 H22        -2.5306   -3.1614  -14.2771 H         1 <0>         0.1253
     55 H23        -2.6154   -2.4996  -10.0522 H         1 <0>         0.1416
     56 H24        -2.8242   -5.2715  -14.0503 H         1 <0>         0.0848
     57 H25        -4.3865   -5.9920  -13.5938 H         1 <0>         0.1105
     58 H26        -4.3248   -4.3315  -14.2320 H         1 <0>         0.0844
@<TRIPOS>BOND
     1    1    2 1
     2    1   34 1
     3    1   35 1
     4    1   36 1
     5    2    7 1
     6    2    3 2
     7    3    4 1
     8    3   15 1
     9    4    5 2
    10    4    6 am
    11    6    7 1
    12    6    9 1
    13    7    8 1
    14    8   37 1
    15    8   38 1
    16    8   39 1
    17    9   14 ar
    18    9   10 ar
    19   10   11 ar
    20   10   40 1
    21   11   12 ar
    22   11   41 1
    23   12   13 ar
    24   12   42 1
    25   13   14 ar
    26   13   43 1
    27   14   44 1
    28   15   16 am
    29   15   45 1
    30   16   17 2
    31   16   18 1
    32   18   19 1
    33   18   20 1
    34   18   21 1
    35   20   46 1
    36   20   47 1
    37   20   48 1
    38   21   22 1
    39   22   23 1
    40   22   49 1
    41   22   50 1
    42   23   24 2
    43   23   25 am
    44   25   26 1
    45   25   51 1
    46   26   31 ar
    47   26   27 ar
    48   27   28 ar
    49   27   52 1
    50   28   29 ar
    51   28   53 1
    52   29   30 ar
    53   29   54 1
    54   30   31 ar
    55   30   32 1
    56   31   55 1
    57   32   33 1
    58   33   56 1
    59   33   57 1
    60   33   58 1
@<TRIPOS>MOLECULE
ZINC13203813
   50    52     0     0     0
SMALL
USER_CHARGES
2-[3-[2-[(2-ethoxy-2-oxo-ethyl)-phenyl-amino]-2-oxo-ethyl]sulfanyl-5-(2-thienyl)-1,2,4-triazol-4-yl]acetic acid
@<TRIPOS>ATOM
      1 C1          5.4664   15.1358   -4.8373 C.3       1 <0>        -0.1519
      2 C2          4.5850   14.0458   -4.2242 C.3       1 <0>         0.0621
      3 O1          4.7697   14.0272   -2.7841 O.3       1 <0>        -0.3585
      4 C3          4.0626   13.1210   -2.0908 C.2       1 <0>         0.4436
      5 O2          3.3142   12.3683   -2.6681 O.2       1 <0>        -0.4911
      6 C4          4.2023   13.0424   -0.5923 C.3       1 <0>         0.1266
      7 N1          3.3335   11.9819   -0.0759 N.am      1 <0>        -0.5529
      8 C5          2.0171   12.2753    0.2967 C.ar      1 <0>         0.1176
      9 C6          0.9554   11.7574   -0.4334 C.ar      1 <0>        -0.1036
     10 C7         -0.3429   12.0441   -0.0596 C.ar      1 <0>        -0.1030
     11 C8         -0.5860   12.8549    1.0339 C.ar      1 <0>        -0.1116
     12 C9          0.4690   13.3772    1.7593 C.ar      1 <0>        -0.1105
     13 C10         1.7696   13.0896    1.3941 C.ar      1 <0>        -0.1170
     14 C11         3.8023   10.7236    0.0404 C.2       1 <0>         0.5522
     15 O3          4.9689   10.4872   -0.1923 O.2       1 <0>        -0.5025
     16 C12         2.8769    9.6105    0.4595 C.3       1 <0>        -0.1466
     17 S1          3.8208    8.0765    0.6387 S.3       1 <0>         0.0893
     18 C13         2.5303    6.9777    1.1201 C.2       1 <0>         0.1563
     19 N2          1.2632    7.2860    1.2780 N.2       1 <0>        -0.2960
     20 N3          0.5959    6.2474    1.6345 N.2       1 <0>        -0.2645
     21 C14         1.3972    5.2089    1.7267 C.2       1 <0>         0.2638
     22 N4          2.6627    5.6469    1.4050 N.pl3     1 <0>        -0.4163
     23 C15         3.8932    4.8525    1.3725 C.3       1 <0>         0.0489
     24 C16         4.0766    4.2665   -0.0037 C.2       1 <0>         0.4600
     25 O4          3.2630    4.4896   -0.8687 O.co2     1 <0>        -0.6088
     26 C17         1.0152    3.8395    2.1076 C.2       1 <0>        -0.0771
     27 C18        -0.2345    3.2771    2.1734 C.2       1 <0>        -0.1172
     28 C19        -0.3465    1.9591    2.5554 C.2       1 <0>        -0.1559
     29 C20         0.7771    1.2611    2.8637 C.2       1 <0>        -0.1793
     30 S2          2.0576    2.4775    2.6036 S.3       1 <0>         0.0907
     31 H1          5.3278   15.1498   -5.9184 H         1 <0>         0.0798
     32 H2          5.1875   16.1045   -4.4227 H         1 <0>         0.0660
     33 H3          6.5118   14.9297   -4.6077 H         1 <0>         0.0677
     34 H4          4.8639   13.0771   -4.6389 H         1 <0>         0.0717
     35 H5          3.5396   14.2520   -4.4539 H         1 <0>         0.0696
     36 H6          3.9138   13.9960   -0.1500 H         1 <0>         0.1263
     37 H7          5.2381   12.8211   -0.3351 H         1 <0>         0.1353
     38 H8          1.1447   11.1277   -1.2902 H         1 <0>         0.1316
     39 H9         -1.1690   11.6383   -0.6246 H         1 <0>         0.1298
     40 H10        -1.6021   13.0810    1.3217 H         1 <0>         0.1261
     41 H11         0.2759   14.0104    2.6126 H         1 <0>         0.1282
     42 H12         2.5931   13.4978    1.9611 H         1 <0>         0.1286
     43 H13         2.1046    9.4755   -0.2977 H         1 <0>         0.1306
     44 H14         2.4115    9.8641    1.4120 H         1 <0>         0.1266
     45 H15         4.7439    5.4904    1.6122 H         1 <0>         0.1077
     46 H16         3.8252    4.0473    2.1041 H         1 <0>         0.1010
     47 H17        -1.1125    3.8555    1.9264 H         1 <0>         0.1429
     48 H18        -1.3161    1.4869    2.6121 H         1 <0>         0.1377
     49 H19         0.8719    0.2330    3.1804 H         1 <0>         0.1883
     50 O5          5.1439    3.4968   -0.2687 O.co2     1 <0>        -0.7426
@<TRIPOS>BOND
     1    1    2 1
     2    1   31 1
     3    1   32 1
     4    1   33 1
     5    2    3 1
     6    2   34 1
     7    2   35 1
     8    3    4 1
     9    4    5 2
    10    4    6 1
    11    6    7 1
    12    6   36 1
    13    6   37 1
    14    7    8 1
    15    7   14 am
    16    8   13 ar
    17    8    9 ar
    18    9   10 ar
    19    9   38 1
    20   10   11 ar
    21   10   39 1
    22   11   12 ar
    23   11   40 1
    24   12   13 ar
    25   12   41 1
    26   13   42 1
    27   14   15 2
    28   14   16 1
    29   16   17 1
    30   16   43 1
    31   16   44 1
    32   17   18 1
    33   18   22 1
    34   18   19 2
    35   19   20 1
    36   20   21 2
    37   21   22 1
    38   21   26 1
    39   22   23 1
    40   23   24 1
    41   23   45 1
    42   23   46 1
    43   24   25 2
    44   24   50 1
    45   26   30 1
    46   26   27 2
    47   27   28 1
    48   27   47 1
    49   28   29 2
    50   28   48 1
    51   29   30 1
    52   29   49 1
@<TRIPOS>MOLECULE
ZINC20576124
   51    54     0     0     0
SMALL
USER_CHARGES
N-[5-[(3R)-1-(2-ethylphenyl)-5-oxo-pyrrolidin-3-yl]-1,3,4-thiadiazol-2-yl]-3,5-dinitro-benzamide
@<TRIPOS>ATOM
      1 C1         -1.5365    0.2646   -2.8651 C.3       1 <0>        -0.1526
      2 C2         -2.3979    1.4688   -2.4796 C.3       1 <0>        -0.0879
      3 C3         -3.0858    1.1947   -1.1671 C.ar      1 <0>        -0.0671
      4 C4         -4.3711    0.6888   -1.1525 C.ar      1 <0>        -0.1141
      5 C5         -5.0029    0.4371    0.0513 C.ar      1 <0>        -0.1132
      6 C6         -4.3507    0.6908    1.2443 C.ar      1 <0>        -0.1206
      7 C7         -3.0640    1.1921    1.2364 C.ar      1 <0>        -0.1070
      8 C8         -2.4285    1.4510    0.0289 C.ar      1 <0>         0.1469
      9 N1         -1.1266    1.9635    0.0175 N.am      1 <0>        -0.5778
     10 C9         -0.7999    3.3943    0.0173 C.3       1 <0>         0.1186
     11 C10         0.6854    3.4796    0.4332 C.3       1 <0>         0.0242
     12 H1          0.8514    3.7262    1.4923 H         1 <0>         0.1108
     13 C11         1.2138    2.0919    0.0017 C.3       1 <0>        -0.1430
     14 C12        -0.0144    1.2087    0.0087 C.2       1 <0>         0.5325
     15 O1          0.0021   -0.0041    0.0020 O.2       1 <0>        -0.5214
     16 C13         1.3926    4.5817   -0.3125 C.2       1 <0>        -0.0436
     17 N2          1.4794    4.8076   -1.6084 N.2       1 <0>        -0.2333
     18 N3          2.1180    5.7886   -2.0779 N.2       1 <0>        -0.3707
     19 C14         2.7434    6.6560   -1.2937 C.2       1 <0>         0.3741
     20 S1          2.3481    5.9625    0.3092 S.3       1 <0>        -0.1161
     21 N4          3.4876    7.7829   -1.6216 N.2       1 <0>        -0.6454
     22 C15         3.6552    8.1272   -2.9138 C.2       1 <0>         0.5024
     23 O2          3.1554    7.4521   -3.7925 O.3       1 <0>        -0.5467
     24 C16         4.4468    9.3257   -3.2625 C.ar      1 <0>        -0.0702
     25 C17         5.0173   10.1064   -2.2557 C.ar      1 <0>         0.0386
     26 C18         5.7602   11.2203   -2.5883 C.ar      1 <0>        -0.0573
     27 C19         5.9299   11.5712   -3.9159 C.ar      1 <0>         0.0077
     28 C20         5.3623   10.8050   -4.9185 C.ar      1 <0>        -0.0540
     29 C21         4.6223    9.6852   -4.5999 C.ar      1 <0>         0.0270
     30 N5          5.5491   11.1880   -6.3360 N.pl3     1 <0>         0.0312
     31 O3          5.0498   10.5147   -7.2197 O.2       1 <0>        -0.1394
     32 O4          6.2022   12.1765   -6.6188 O.3       1 <0>        -0.1500
     33 N6          6.3714   12.0455   -1.5224 N.pl3     1 <0>         0.0309
     34 O5          7.0229   13.0324   -1.8143 O.2       1 <0>        -0.1533
     35 O6          6.2228   11.7378   -0.3533 O.3       1 <0>        -0.1351
     36 H2         -1.0344    0.4647   -3.8231 H         1 <0>         0.0581
     37 H3         -2.1746   -0.6259   -2.9645 H         1 <0>         0.0518
     38 H4         -0.7812    0.0893   -2.0848 H         1 <0>         0.0673
     39 H5         -1.7598    2.3593   -2.3802 H         1 <0>         0.0774
     40 H6         -3.1532    1.6442   -3.2599 H         1 <0>         0.0715
     41 H7         -4.8829    0.4893   -2.0823 H         1 <0>         0.1252
     42 H8         -6.0077    0.0412    0.0601 H         1 <0>         0.1236
     43 H9         -4.8469    0.4931    2.1829 H         1 <0>         0.1251
     44 H10        -2.5537    1.3858    2.1683 H         1 <0>         0.1248
     45 H11        -0.9590    3.8066   -0.9900 H         1 <0>         0.0884
     46 H12        -1.4484    3.9186    0.7347 H         1 <0>         0.0842
     47 H13         1.6634    2.1659   -0.9995 H         1 <0>         0.1199
     48 H14         1.9730    1.7490    0.7201 H         1 <0>         0.1094
     49 H15         4.8815    9.8363   -1.2189 H         1 <0>         0.1876
     50 H16         6.5083   12.4469   -4.1707 H         1 <0>         0.1803
     51 H17         4.1801    9.0878   -5.3835 H         1 <0>         0.1802
@<TRIPOS>BOND
     1    1    2 1
     2    1   36 1
     3    1   37 1
     4    1   38 1
     5    2    3 1
     6    2   39 1
     7    2   40 1
     8    3    8 ar
     9    3    4 ar
    10    4    5 ar
    11    4   41 1
    12    5    6 ar
    13    5   42 1
    14    6    7 ar
    15    6   43 1
    16    7    8 ar
    17    7   44 1
    18    8    9 1
    19    9   14 am
    20    9   10 1
    21   10   11 1
    22   10   45 1
    23   10   46 1
    24   11   12 1
    25   11   13 1
    26   11   16 1
    27   13   14 1
    28   13   47 1
    29   13   48 1
    30   14   15 2
    31   16   20 1
    32   16   17 2
    33   17   18 1
    34   18   19 2
    35   19   20 1
    36   19   21 1
    37   21   22 2
    38   22   23 1
    39   22   24 1
    40   24   29 ar
    41   24   25 ar
    42   25   26 ar
    43   25   49 1
    44   26   27 ar
    45   26   33 1
    46   27   28 ar
    47   27   50 1
    48   28   29 ar
    49   28   30 1
    50   29   51 1
    51   30   31 2
    52   30   32 1
    53   33   34 2
    54   33   35 1
@<TRIPOS>MOLECULE
ZINC33776486
   69    72     0     0     0
SMALL
USER_CHARGES
(2S)-2-(4-butoxy-3-methoxy-phenyl)-4-hydroxy-3-(5-methylfuran-2-carbonyl)-1-(2-morpholinoethyl)-2H-pyrrol-5-one
@<TRIPOS>ATOM
      1 C1         -7.5549   -3.3757    7.8089 C.3       1 <0>        -0.1530
      2 C2         -6.1687   -2.9719    7.3027 C.3       1 <0>        -0.1215
      3 C3         -6.1192   -3.1178    5.7805 C.3       1 <0>        -0.1197
      4 C4         -4.7330   -2.7139    5.2743 C.3       1 <0>         0.0585
      5 O1         -4.6867   -2.8502    3.8526 O.3       1 <0>        -0.3076
      6 C5         -3.5162   -2.5290    3.2393 C.ar      1 <0>         0.0945
      7 C6         -2.4360   -2.0927    3.9897 C.ar      1 <0>        -0.1779
      8 C7         -1.2449   -1.7724    3.3653 C.ar      1 <0>        -0.0948
      9 C8         -1.1316   -1.8755    1.9913 C.ar      1 <0>        -0.0682
     10 C9         -2.2054   -2.3100    1.2368 C.ar      1 <0>        -0.1380
     11 C10        -3.4003   -2.6381    1.8569 C.ar      1 <0>         0.0926
     12 O2         -4.4577   -3.0653    1.1161 O.3       1 <0>        -0.3110
     13 C11        -4.2340   -3.2601   -0.2818 C.3       1 <0>         0.0232
     14 C12         0.1672   -1.5191    1.3152 C.3       1 <0>         0.2589
     15 H1          0.8950   -1.2451    2.0932 H         1 <0>         0.0733
     16 C13         0.6466   -2.6736    0.4665 C.2       1 <0>        -0.4742
     17 C14         0.7042   -2.2237   -0.8078 C.2       1 <0>         0.2808
     18 C15         0.2751   -0.8113   -0.8444 C.2       1 <0>         0.5083
     19 O3          0.2133   -0.1271   -1.8468 O.2       1 <0>        -0.5322
     20 N1         -0.0346   -0.3927    0.3961 N.am      1 <0>        -0.6058
     21 C16        -0.4972    0.9479    0.7636 C.3       1 <0>         0.1403
     22 C17         0.7077    1.8289    1.0995 C.3       1 <0>         0.0382
     23 N2          0.2438    3.1732    1.4679 N.3       1 <0>        -0.5318
     24 C18        -0.3683    3.8531    0.3171 C.3       1 <0>         0.0104
     25 C19        -0.8900    5.2230    0.7589 C.3       1 <0>         0.0638
     26 O4          0.1855    5.9774    1.3242 O.3       1 <0>        -0.3876
     27 C20         0.8043    5.3448    2.4477 C.3       1 <0>         0.0639
     28 C21         1.3431    3.9761    2.0230 C.3       1 <0>         0.0168
     29 O5          1.0891   -2.9543   -1.8806 O.3       1 <0>        -0.6048
     30 C22         0.9843   -4.0230    0.9345 C.2       1 <0>         0.4945
     31 O6          1.2369   -4.9017    0.1291 O.2       1 <0>        -0.4742
     32 C23         1.0175   -4.3136    2.3709 C.2       1 <0>        -0.0492
     33 C24         1.1889   -5.5553    2.9442 C.2       1 <0>        -0.1643
     34 C25         1.1572   -5.3618    4.3327 C.2       1 <0>        -0.2212
     35 C26         0.9634   -4.0406    4.5478 C.2       1 <0>        -0.0141
     36 O7          0.8800   -3.4142    3.3671 O.3       1 <0>        -0.1403
     37 C27         0.8578   -3.3801    5.8982 C.3       1 <0>        -0.0740
     38 H2         -7.5905   -3.2708    8.9033 H         1 <0>         0.0554
     39 H3         -7.7552   -4.4218    7.5341 H         1 <0>         0.0557
     40 H4         -8.3156   -2.7248    7.3532 H         1 <0>         0.0555
     41 H5         -5.9684   -1.9258    7.5775 H         1 <0>         0.0643
     42 H6         -5.4080   -3.6228    7.7584 H         1 <0>         0.0645
     43 H7         -6.3195   -4.1639    5.5057 H         1 <0>         0.0731
     44 H8         -6.8800   -2.4670    5.3248 H         1 <0>         0.0728
     45 H9         -4.5328   -1.6678    5.5491 H         1 <0>         0.0584
     46 H10        -3.9722   -3.3647    5.7300 H         1 <0>         0.0584
     47 H11        -2.5232   -2.0075    5.0628 H         1 <0>         0.1274
     48 H12        -0.4023   -1.4371    3.9518 H         1 <0>         0.1222
     49 H13        -2.1130   -2.3935    0.1640 H         1 <0>         0.1317
     50 H14        -5.1644   -3.6037   -0.7576 H         1 <0>         0.0978
     51 H15        -3.4478   -4.0159   -0.4255 H         1 <0>         0.0588
     52 H16        -3.9176   -2.3106   -0.7383 H         1 <0>         0.0540
     53 H17        -1.0502    1.3887   -0.0789 H         1 <0>         0.0770
     54 H18        -1.1578    0.8803    1.6405 H         1 <0>         0.0860
     55 H19         1.2607    1.3881    1.9421 H         1 <0>         0.0809
     56 H20         1.3684    1.8965    0.2226 H         1 <0>         0.0420
     57 H21         0.3841    3.9830   -0.4747 H         1 <0>         0.0455
     58 H22        -1.2025    3.2469   -0.0658 H         1 <0>         0.0910
     59 H23        -1.2981    5.7580   -0.1113 H         1 <0>         0.0981
     60 H24        -1.6814    5.0889    1.5110 H         1 <0>         0.0601
     61 H25         1.6329    5.9707    2.8105 H         1 <0>         0.0969
     62 H26         0.0632    5.2163    3.2503 H         1 <0>         0.0597
     63 H27         1.7690    3.4605    2.8963 H         1 <0>         0.0871
     64 H28         2.1231    4.1080    1.2587 H         1 <0>         0.0429
     65 H29         1.3238   -6.4930    2.4257 H         1 <0>         0.1490
     66 H30         1.2631   -6.1255    5.0889 H         1 <0>         0.1432
     67 H31         0.7014   -2.2993    5.7665 H         1 <0>         0.0746
     68 H32         1.7862   -3.5501    6.4631 H         1 <0>         0.0818
     69 H33         0.0087   -3.8088    6.4507 H         1 <0>         0.0815
@<TRIPOS>BOND
     1    1    2 1
     2    1   38 1
     3    1   39 1
     4    1   40 1
     5    2    3 1
     6    2   41 1
     7    2   42 1
     8    3    4 1
     9    3   43 1
    10    3   44 1
    11    4    5 1
    12    4   45 1
    13    4   46 1
    14    5    6 1
    15    6   11 ar
    16    6    7 ar
    17    7    8 ar
    18    7   47 1
    19    8    9 ar
    20    8   48 1
    21    9   10 ar
    22    9   14 1
    23   10   11 ar
    24   10   49 1
    25   11   12 1
    26   12   13 1
    27   13   50 1
    28   13   51 1
    29   13   52 1
    30   14   15 1
    31   14   20 1
    32   14   16 1
    33   16   17 2
    34   16   30 1
    35   17   18 1
    36   17   29 1
    37   18   19 2
    38   18   20 am
    39   20   21 1
    40   21   22 1
    41   21   53 1
    42   21   54 1
    43   22   23 1
    44   22   55 1
    45   22   56 1
    46   23   28 1
    47   23   24 1
    48   24   25 1
    49   24   57 1
    50   24   58 1
    51   25   26 1
    52   25   59 1
    53   25   60 1
    54   26   27 1
    55   27   28 1
    56   27   61 1
    57   27   62 1
    58   28   63 1
    59   28   64 1
    60   30   31 2
    61   30   32 1
    62   32   36 1
    63   32   33 2
    64   33   34 1
    65   33   65 1
    66   34   35 2
    67   34   66 1
    68   35   36 1
    69   35   37 1
    70   37   67 1
    71   37   68 1
    72   37   69 1
@<TRIPOS>MOLECULE
ZINC40003524
   57    60     0     0     0
SMALL
USER_CHARGES

@<TRIPOS>ATOM
      1 C1         -3.6692   -2.3734   -0.3900 C.3       1 <0>        -0.0994
      2 C2         -2.2891   -2.1552    0.1746 C.2       1 <0>        -0.0586
      3 C3         -1.3263   -1.5478   -0.5768 C.2       1 <0>        -0.1032
      4 C4         -0.0481   -1.3523   -0.0374 C.2       1 <0>        -0.1548
      5 C5          0.2277   -1.7644    1.2218 C.2       1 <0>         0.0748
      6 N1         -0.7264   -2.3710    1.9767 N.pl3     1 <0>        -0.3283
      7 C6         -1.9840   -2.5705    1.4821 C.2       1 <0>         0.2342
      8 N2         -2.7195   -3.1719    2.4175 N.2       1 <0>        -0.5038
      9 C7         -1.9925   -3.3665    3.5039 C.2       1 <0>         0.1625
     10 C8         -0.7139   -2.8797    3.2628 C.2       1 <0>        -0.1379
     11 C9          0.3810   -2.8874    4.1622 C.2       1 <0>         0.5469
     12 O1          1.4158   -2.3130    3.8679 O.2       1 <0>        -0.5012
     13 C10         0.2697   -3.5868    5.4483 C.2       1 <0>        -0.4935
     14 C11         0.3520   -4.9213    5.6504 C.2       1 <0>         0.2615
     15 C12         0.1879   -5.2063    7.0886 C.2       1 <0>         0.5117
     16 O2          0.2132   -6.3145    7.5870 O.2       1 <0>        -0.5371
     17 N3          0.0063   -4.0589    7.7673 N.am      1 <0>        -0.6057
     18 C13         0.0478   -2.9538    6.8022 C.3       1 <0>         0.2645
     19 H1         -0.8988   -2.4135    6.8129 H         1 <0>         0.0675
     20 C14         1.1831   -2.0184    7.1295 C.ar      1 <0>        -0.0173
     21 C15         2.4857   -2.4814    7.1101 C.ar      1 <0>        -0.0596
     22 C16         3.5306   -1.6273    7.4096 C.ar      1 <0>        -0.1130
     23 C17         3.2737   -0.3038    7.7297 C.ar      1 <0>         0.0622
     24 C18         1.9627    0.1623    7.7488 C.ar      1 <0>         0.0942
     25 C19         0.9203   -0.6979    7.4429 C.ar      1 <0>        -0.1805
     26 O3          1.7054    1.4604    8.0624 O.3       1 <0>        -0.3161
     27 C20         0.3325    1.8428    8.1663 C.3       1 <0>         0.0290
     28 O4          4.3005    0.5376    8.0250 O.3       1 <0>        -0.4933
     29 C21        -0.1921   -3.9342    9.2134 C.3       1 <0>         0.1411
     30 C22         1.1659   -3.9542    9.9180 C.3       1 <0>         0.0390
     31 O5          1.8963   -2.7740    9.5783 O.3       1 <0>        -0.3646
     32 C23         3.2112   -2.7235   10.1356 C.3       1 <0>         0.0327
     33 O6          0.5525   -5.8498    4.6848 O.3       1 <0>        -0.6592
     34 C24        -2.4648   -4.0167    4.7787 C.3       1 <0>        -0.0820
     35 H2         -4.2941   -1.5087   -0.1665 H         1 <0>         0.0729
     36 H3         -3.6034   -2.5047   -1.4700 H         1 <0>         0.0689
     37 H4         -4.1084   -3.2646    0.0583 H         1 <0>         0.0776
     38 H5         -1.5479   -1.2198   -1.5816 H         1 <0>         0.1400
     39 H6          0.7185   -0.8722   -0.6276 H         1 <0>         0.1500
     40 H7          1.2153   -1.6103    1.6308 H         1 <0>         0.1721
     41 H8          2.6873   -3.5127    6.8608 H         1 <0>         0.1150
     42 H9          4.5472   -1.9916    7.3944 H         1 <0>         0.1220
     43 H10        -0.0978   -0.3377    7.4533 H         1 <0>         0.1203
     44 H11         0.2667    2.9168    8.3406 H         1 <0>         0.0924
     45 H12        -0.1855    1.5926    7.2405 H         1 <0>         0.0520
     46 H13        -0.1310    1.3109    8.9971 H         1 <0>         0.0521
     47 H14         4.6632    1.0001    7.2572 H         1 <0>         0.3771
     48 H15        -0.7004   -2.9948    9.4308 H         1 <0>         0.0840
     49 H16        -0.7988   -4.7665    9.5700 H         1 <0>         0.0905
     50 H17         1.0149   -3.9901   10.9969 H         1 <0>         0.0514
     51 H18         1.7271   -4.8330    9.6003 H         1 <0>         0.0523
     52 H19         3.6645   -1.7582    9.9104 H         1 <0>         0.0866
     53 H20         3.1530   -2.8544   11.2161 H         1 <0>         0.0302
     54 H21         3.8189   -3.5196    9.7054 H         1 <0>         0.0355
     55 H22        -2.3286   -5.0959    4.7083 H         1 <0>         0.0839
     56 H23        -1.8867   -3.6316    5.6188 H         1 <0>         0.0953
     57 H24        -3.5206   -3.7929    4.9312 H         1 <0>         0.0651
@<TRIPOS>BOND
     1    1    2 1
     2    1   35 1
     3    1   36 1
     4    1   37 1
     5    2    7 1
     6    2    3 2
     7    3    4 1
     8    3   38 1
     9    4    5 2
    10    4   39 1
    11    5    6 1
    12    5   40 1
    13    6   10 1
    14    6    7 1
    15    7    8 2
    16    8    9 1
    17    9   10 2
    18    9   34 1
    19   10   11 1
    20   11   12 2
    21   11   13 1
    22   13   18 1
    23   13   14 2
    24   14   15 1
    25   14   33 1
    26   15   16 2
    27   15   17 am
    28   17   18 1
    29   17   29 1
    30   18   19 1
    31   18   20 1
    32   20   25 ar
    33   20   21 ar
    34   21   22 ar
    35   21   41 1
    36   22   23 ar
    37   22   42 1
    38   23   24 ar
    39   23   28 1
    40   24   25 ar
    41   24   26 1
    42   25   43 1
    43   26   27 1
    44   27   44 1
    45   27   45 1
    46   27   46 1
    47   28   47 1
    48   29   30 1
    49   29   48 1
    50   29   49 1
    51   30   31 1
    52   30   50 1
    53   30   51 1
    54   31   32 1
    55   32   52 1
    56   32   53 1
    57   32   54 1
    58   34   55 1
    59   34   56 1
    60   34   57 1
@<TRIPOS>MOLECULE
ZINC20492280
   50    53     0     0     0
SMALL
USER_CHARGES

@<TRIPOS>ATOM
      1 C1         -1.7814    3.4196    1.1238 C.3       1 <0>         0.0237
      2 O1         -2.9865    3.1220    1.8318 O.3       1 <0>        -0.3042
      3 C2         -2.8559    2.5829    3.0735 C.ar      1 <0>         0.1393
      4 C3         -1.5966    2.3520    3.5982 C.ar      1 <0>        -0.1861
      5 C4         -1.4632    1.7991    4.8715 C.ar      1 <0>         0.0277
      6 C5         -2.5998    1.4799    5.6138 C.ar      1 <0>        -0.2046
      7 C6         -3.8576    1.7121    5.0861 C.ar      1 <0>         0.1448
      8 C7         -3.9888    2.2690    3.8178 C.ar      1 <0>         0.0377
      9 O2         -5.2259    2.5021    3.3030 O.3       1 <0>        -0.3126
     10 C8         -5.8252    1.4453    2.5507 C.3       1 <0>         0.0354
     11 O3         -4.9662    1.4009    5.8097 O.3       1 <0>        -0.3032
     12 C9         -4.7577    0.8376    7.1064 C.3       1 <0>         0.0202
     13 C10        -0.1154    1.5507    5.4349 C.ar      1 <0>         0.2653
     14 C11        -0.0199    0.9874    6.7181 C.ar      1 <0>        -0.2084
     15 C12         1.2249    0.7407    7.2766 C.ar      1 <0>         0.0241
     16 C13         2.3999    1.0903    6.4768 C.ar      1 <0>        -0.2132
     17 C14         3.7750    1.0082    6.6598 C.2       1 <0>         0.1690
     18 N1          4.3629    1.4962    5.5463 N.pl3     1 <0>        -0.4163
     19 H1          5.3202    1.5581    5.4027 H         1 <0>         0.4449
     20 N2          3.3848    1.8992    4.6310 N.2       1 <0>        -0.2827
     21 C15         2.1857    1.6754    5.1444 C.ar      1 <0>         0.2783
     22 N3          0.9340    1.8629    4.7083 N.ar      1 <0>        -0.4852
     23 C16         4.4670    0.4833    7.8539 C.ar      1 <0>        -0.0334
     24 C17         4.1023   -0.7545    8.3887 C.ar      1 <0>        -0.0020
     25 C18         4.7532   -1.2390    9.5039 C.ar      1 <0>        -0.1012
     26 C19         5.7654   -0.5016   10.0932 C.ar      1 <0>        -0.0422
     27 C20         6.1315    0.7253    9.5690 C.ar      1 <0>        -0.0538
     28 C21         5.4931    1.2193    8.4502 C.ar      1 <0>        -0.0374
     29 N4          7.2148    1.5070   10.2064 N.pl3     1 <0>         0.0411
     30 O4          7.7786    1.0732   11.1840 O.2       1 <0>        -0.1618
     31 O5          7.5359    2.5793    9.7495 O.3       1 <0>        -0.1678
     32 C22         1.3597    0.1501    8.6230 C.2       1 <0>         0.5262
     33 O6          1.0811   -1.0266    8.8052 O.co2     1 <0>        -0.6702
     34 O7          1.7500    0.8376    9.5560 O.co2     1 <0>        -0.6614
     35 H2         -1.2051    2.5046    0.9867 H         1 <0>         0.0588
     36 H3         -2.0272    3.8435    0.1502 H         1 <0>         0.1001
     37 H4         -1.1926    4.1377    1.6945 H         1 <0>         0.0601
     38 H5         -0.7175    2.5995    3.0218 H         1 <0>         0.1514
     39 H6         -2.4983    1.0513    6.6000 H         1 <0>         0.1461
     40 H7         -6.8071    1.7615    2.1985 H         1 <0>         0.0896
     41 H8         -5.1931    1.2038    1.6962 H         1 <0>         0.0436
     42 H9         -5.9327    0.5644    3.1837 H         1 <0>         0.0444
     43 H10        -5.7213    0.6369    7.5746 H         1 <0>         0.1025
     44 H11        -4.1984   -0.0932    7.0125 H         1 <0>         0.0609
     45 H12        -4.1942    1.5397    7.7211 H         1 <0>         0.0613
     46 H13        -0.9165    0.7467    7.2700 H         1 <0>         0.1381
     47 H14         3.3121   -1.3306    7.9303 H         1 <0>         0.1546
     48 H15         4.4722   -2.1958    9.9185 H         1 <0>         0.1541
     49 H16         6.2715   -0.8856   10.9665 H         1 <0>         0.1544
     50 H17         5.7831    2.1750    8.0392 H         1 <0>         0.1498
@<TRIPOS>BOND
     1    1    2 1
     2    1   35 1
     3    1   36 1
     4    1   37 1
     5    2    3 1
     6    3    8 ar
     7    3    4 ar
     8    4    5 ar
     9    4   38 1
    10    5    6 ar
    11    5   13 1
    12    6    7 ar
    13    6   39 1
    14    7    8 ar
    15    7   11 1
    16    8    9 1
    17    9   10 1
    18   10   40 1
    19   10   41 1
    20   10   42 1
    21   11   12 1
    22   12   43 1
    23   12   44 1
    24   12   45 1
    25   13   22 ar
    26   13   14 ar
    27   14   15 ar
    28   14   46 1
    29   15   16 ar
    30   15   32 1
    31   16   21 ar
    32   16   17 2
    33   17   18 1
    34   17   23 1
    35   18   19 1
    36   18   20 1
    37   20   21 2
    38   21   22 ar
    39   23   28 ar
    40   23   24 ar
    41   24   25 ar
    42   24   47 1
    43   25   26 ar
    44   25   48 1
    45   26   27 ar
    46   26   49 1
    47   27   28 ar
    48   27   29 1
    49   28   50 1
    50   29   30 2
    51   29   31 1
    52   32   33 2
    53   32   34 1
@<TRIPOS>MOLECULE
ZINC09451943
   71    75     0     0     0
SMALL
USER_CHARGES
(4E,5R)-4-(2,3-dihydro-1,4-benzodioxin-6-yl-hydroxy-methylene)-1-(3-imidazol-1-ylpropyl)-5-(3-pentoxyphenyl)pyrrolidine-2,3-dione
@<TRIPOS>ATOM
      1 C1         13.3411    1.8352    5.5514 C.3       1 <0>        -0.1545
      2 C2         12.5955    1.5362    4.2493 C.3       1 <0>        -0.1247
      3 C3         11.3696    0.6716    4.5506 C.3       1 <0>        -0.1177
      4 C4         10.6240    0.3726    3.2485 C.3       1 <0>        -0.1200
      5 C5          9.3981   -0.4920    3.5498 C.3       1 <0>         0.0598
      6 O1          8.7017   -0.7713    2.3337 O.3       1 <0>        -0.3155
      7 C6          7.5807   -1.5340    2.4258 C.ar      1 <0>         0.1226
      8 C7          7.1593   -2.0035    3.6617 C.ar      1 <0>        -0.2148
      9 C8          6.0193   -2.7781    3.7527 C.ar      1 <0>        -0.0915
     10 C9          5.2952   -3.0814    2.6143 C.ar      1 <0>        -0.1369
     11 C10         5.7159   -2.6191    1.3812 C.ar      1 <0>        -0.0275
     12 C11         6.8555   -1.8439    1.2847 C.ar      1 <0>        -0.1080
     13 C12         4.9273   -2.9558    0.1419 C.3       1 <0>         0.2670
     14 H1          5.5859   -2.8436   -0.7319 H         1 <0>         0.0745
     15 C13         3.7069   -2.0695    0.0484 C.2       1 <0>        -0.4956
     16 C14         3.6874   -0.6913   -0.0468 C.2       1 <0>         0.4005
     17 C15         2.4134    0.0137   -0.2550 C.ar      1 <0>        -0.0665
     18 C16         1.5665   -0.3610   -1.3050 C.ar      1 <0>        -0.0467
     19 C17         0.3762    0.3023   -1.4975 C.ar      1 <0>        -0.1212
     20 C18         0.0091    1.3447   -0.6528 C.ar      1 <0>         0.0461
     21 C19         0.8456    1.7215    0.3962 C.ar      1 <0>         0.0338
     22 C20         2.0434    1.0617    0.5955 C.ar      1 <0>        -0.0796
     23 O2          0.4956    2.7339    1.2365 O.3       1 <0>        -0.3105
     24 C21        -0.5355    3.6181    0.7841 C.3       1 <0>         0.0191
     25 C22        -1.6820    2.7696    0.2180 C.3       1 <0>         0.0200
     26 O3         -1.1680    1.9902   -0.8679 O.3       1 <0>        -0.3097
     27 O4          4.8380    0.0085    0.0514 O.2       1 <0>        -0.6210
     28 C23         2.5979   -2.9277    0.0777 C.2       1 <0>         0.3698
     29 O5          1.4297   -2.5874    0.0256 O.3       1 <0>        -0.4949
     30 C24         3.0956   -4.3258    0.1834 C.2       1 <0>         0.4779
     31 O6          2.3911   -5.3136    0.2291 O.2       1 <0>        -0.5318
     32 N1          4.4388   -4.3358    0.2173 N.am      1 <0>        -0.5997
     33 C25         5.2787   -5.5317    0.3194 C.3       1 <0>         0.1368
     34 C26         5.5293   -5.8546    1.7938 C.3       1 <0>        -0.1690
     35 C27         6.4066   -7.1035    1.9004 C.3       1 <0>         0.1036
     36 N2          6.6465   -7.4127    3.3122 N.pl3     1 <0>        -0.4397
     37 C28         5.8774   -8.2165    4.1097 C.2       1 <0>        -0.0537
     38 C29         6.4548   -8.2252    5.3263 C.2       1 <0>        -0.0310
     39 N3          7.5466   -7.4480    5.2732 N.2       1 <0>        -0.4985
     40 C30         7.6710   -6.9626    4.0681 C.2       1 <0>         0.1968
     41 H2         14.2224    2.4568    5.3348 H         1 <0>         0.0534
     42 H3         13.6633    0.8909    6.0145 H         1 <0>         0.0538
     43 H4         12.6737    2.3729    6.2409 H         1 <0>         0.0540
     44 H5         12.2733    2.4805    3.7862 H         1 <0>         0.0634
     45 H6         13.2629    0.9986    3.5597 H         1 <0>         0.0628
     46 H7         11.6918   -0.2727    5.0138 H         1 <0>         0.0644
     47 H8         10.7022    1.2092    5.2402 H         1 <0>         0.0648
     48 H9         10.3018    1.3169    2.7853 H         1 <0>         0.0742
     49 H10        11.2914   -0.1650    2.5589 H         1 <0>         0.0726
     50 H11         9.7203   -1.4363    4.0130 H         1 <0>         0.0578
     51 H12         8.7307    0.0456    4.2394 H         1 <0>         0.0584
     52 H13         7.7220   -1.7633    4.5517 H         1 <0>         0.1176
     53 H14         5.6907   -3.1436    4.7145 H         1 <0>         0.1138
     54 H15         4.4017   -3.6835    2.6881 H         1 <0>         0.1116
     55 H16         7.1816   -1.4800    0.3217 H         1 <0>         0.1290
     56 H17         1.8473   -1.1697   -1.9635 H         1 <0>         0.1289
     57 H18        -0.2757    0.0124   -2.3083 H         1 <0>         0.1294
     58 H19         2.6935    1.3548    1.4066 H         1 <0>         0.1315
     59 H20        -0.8955    4.2241    1.6286 H         1 <0>         0.1163
     60 H21        -0.1341    4.2801    0.0027 H         1 <0>         0.0731
     61 H22        -2.0727    2.1088    1.0058 H         1 <0>         0.0748
     62 H23        -2.4859    3.4304   -0.1383 H         1 <0>         0.1170
     63 H24         6.2394   -5.3492   -0.1843 H         1 <0>         0.0817
     64 H25         4.7686   -6.3801   -0.1602 H         1 <0>         0.0819
     65 H26         6.0394   -5.0062    2.2734 H         1 <0>         0.0961
     66 H27         4.5686   -6.0371    2.2976 H         1 <0>         0.0745
     67 H28         5.8964   -7.9519    1.4208 H         1 <0>         0.0941
     68 H29         7.3672   -6.9210    1.3966 H         1 <0>         0.0974
     69 H30         5.0428   -8.7433    3.9485 H         1 <0>         0.1629
     70 H31         6.0486   -8.7580    6.0687 H         1 <0>         0.1530
     71 H32         8.4390   -6.3610    3.8482 H         1 <0>         0.1879
@<TRIPOS>BOND
     1    1    2 1
     2    1   41 1
     3    1   42 1
     4    1   43 1
     5    2    3 1
     6    2   44 1
     7    2   45 1
     8    3    4 1
     9    3   46 1
    10    3   47 1
    11    4    5 1
    12    4   48 1
    13    4   49 1
    14    5    6 1
    15    5   50 1
    16    5   51 1
    17    6    7 1
    18    7   12 ar
    19    7    8 ar
    20    8    9 ar
    21    8   52 1
    22    9   10 ar
    23    9   53 1
    24   10   11 ar
    25   10   54 1
    26   11   12 ar
    27   11   13 1
    28   12   55 1
    29   13   15 1
    30   13   32 1
    31   13   14 1
    32   15   28 2
    33   15   16 1
    34   16   27 2
    35   16   17 1
    36   17   22 ar
    37   17   18 ar
    38   18   19 ar
    39   18   56 1
    40   19   20 ar
    41   19   57 1
    42   20   26 1
    43   20   21 ar
    44   21   22 ar
    45   21   23 1
    46   22   58 1
    47   23   24 1
    48   24   25 1
    49   24   59 1
    50   24   60 1
    51   25   26 1
    52   25   61 1
    53   25   62 1
    54   28   30 1
    55   28   29 1
    56   30   32 am
    57   30   31 2
    58   32   33 1
    59   33   34 1
    60   33   63 1
    61   33   64 1
    62   34   35 1
    63   34   65 1
    64   34   66 1
    65   35   36 1
    66   35   67 1
    67   35   68 1
    68   36   40 1
    69   36   37 1
    70   37   38 2
    71   37   69 1
    72   38   39 1
    73   38   70 1
    74   39   40 2
    75   40   71 1
@<TRIPOS>MOLECULE
ZINC33547731
   59    62     0     0     0
SMALL
USER_CHARGES
ethyl 2-[(2R)-2-(3-allyloxyphenyl)-4-hydroxy-3-(5-methylfuran-2-carbonyl)-5-oxo-2H-pyrrol-1-yl]-4-methyl-thiazole-5-carboxylate
@<TRIPOS>ATOM
      1 C1         -0.0507    0.0797   -0.0261 C.3       1 <0>        -0.1540
      2 C2         -0.0554    1.6091   -0.0704 C.3       1 <0>         0.0615
      3 O1          1.2904    2.0898   -0.0680 O.3       1 <0>        -0.3494
      4 C3          1.4631    3.4275   -0.1047 C.2       1 <0>         0.5708
      5 O2          0.4960    4.1650   -0.1377 O.2       1 <0>        -0.5049
      6 C4          2.8117    3.9904   -0.1047 C.2       1 <0>        -0.3286
      7 C5          3.2193    5.3178   -0.1381 C.2       1 <0>         0.2152
      8 N1          4.5034    5.5605   -0.1297 N.2       1 <0>        -0.5500
      9 C6          5.3946    4.5816   -0.0906 C.2       1 <0>         0.3760
     10 S1          4.3947    3.1624   -0.0537 S.3       1 <0>         0.1376
     11 N2          6.7737    4.6682   -0.0765 N.am      1 <0>        -0.5023
     12 C7          7.7098    3.5386   -0.0325 C.3       1 <0>         0.2649
     13 H1          7.5426    2.8769   -0.8952 H         1 <0>         0.0918
     14 C8          9.0955    4.1410   -0.0341 C.2       1 <0>        -0.4830
     15 C9          8.9369    5.4843   -0.0754 C.2       1 <0>         0.2774
     16 C10         7.4963    5.8026   -0.1065 C.2       1 <0>         0.5125
     17 O3          7.0312    6.9244   -0.1506 O.2       1 <0>        -0.4566
     18 O4          9.9410    6.3923   -0.0897 O.3       1 <0>        -0.6299
     19 C11        10.3676    3.4104    0.0025 C.2       1 <0>         0.5481
     20 O5         11.1015    3.5131    0.9697 O.2       1 <0>        -0.4462
     21 C12        10.7554    2.5572   -1.1246 C.2       1 <0>        -0.0684
     22 C13        11.8648    1.7412   -1.1810 C.2       1 <0>        -0.1470
     23 C14        11.8373    1.1159   -2.4359 C.2       1 <0>        -0.2245
     24 C15        10.7370    1.5646   -3.0819 C.2       1 <0>        -0.0011
     25 O6         10.0869    2.4263   -2.2892 O.3       1 <0>        -0.1425
     26 C16        10.3089    1.1568   -4.4681 C.3       1 <0>        -0.0780
     27 C17         7.4950    2.7360    1.2248 C.ar      1 <0>        -0.0577
     28 C18         7.3529    3.3805    2.4400 C.ar      1 <0>        -0.1223
     29 C19         7.1557    2.6470    3.5951 C.ar      1 <0>        -0.0778
     30 C20         7.1001    1.2677    3.5380 C.ar      1 <0>        -0.2057
     31 C21         7.2418    0.6189    2.3202 C.ar      1 <0>         0.1282
     32 C22         7.4344    1.3575    1.1615 C.ar      1 <0>        -0.1332
     33 O7          7.1879   -0.7378    2.2615 O.3       1 <0>        -0.3104
     34 C23         6.9827   -1.4328    3.4931 C.3       1 <0>         0.0851
     35 C24         6.9513   -2.9169    3.2332 C.2       1 <0>        -0.1554
     36 C25         7.6149   -3.7329    4.0142 C.2       1 <0>        -0.1787
     37 C26         2.2147    6.4402   -0.1823 C.3       1 <0>        -0.0880
     38 H2         -1.0866   -0.2903   -0.0279 H         1 <0>         0.0791
     39 H3          0.4581   -0.2590    0.8885 H         1 <0>         0.0673
     40 H4          0.4798   -0.3110   -0.9070 H         1 <0>         0.0676
     41 H5         -0.5642    1.9478   -0.9850 H         1 <0>         0.0684
     42 H6         -0.5859    1.9998    0.8104 H         1 <0>         0.0682
     43 H7         12.6091    1.6090   -0.4097 H         1 <0>         0.1540
     44 H8         12.5594    0.4082   -2.8154 H         1 <0>         0.1488
     45 H9          9.3786    1.6803   -4.7334 H         1 <0>         0.0780
     46 H10        10.1386    0.0704   -4.4945 H         1 <0>         0.0858
     47 H11        11.0971    1.4220   -5.1881 H         1 <0>         0.0857
     48 H12         7.3964    4.4586    2.4868 H         1 <0>         0.1189
     49 H13         7.0454    3.1527    4.5431 H         1 <0>         0.1242
     50 H14         6.9460    0.6952    4.4407 H         1 <0>         0.1246
     51 H15         7.5410    0.8549    0.2116 H         1 <0>         0.1311
     52 H16         7.8037   -1.1993    4.1870 H         1 <0>         0.0671
     53 H17         6.0267   -1.1180    3.9369 H         1 <0>         0.0716
     54 H18         6.3711   -3.3150    2.3877 H         1 <0>         0.1219
     55 H19         7.5919   -4.8162    3.8244 H         1 <0>         0.1089
     56 H20         8.1951   -3.3348    4.8597 H         1 <0>         0.1012
     57 H21         2.7432    7.4047   -0.2038 H         1 <0>         0.0806
     58 H22         1.5732    6.3934    0.7100 H         1 <0>         0.0864
     59 H23         1.5944    6.3417   -1.0854 H         1 <0>         0.0866
@<TRIPOS>BOND
     1    1    2 1
     2    1   38 1
     3    1   39 1
     4    1   40 1
     5    2    3 1
     6    2   41 1
     7    2   42 1
     8    3    4 1
     9    4    5 2
    10    4    6 1
    11    6   10 1
    12    6    7 2
    13    7    8 1
    14    7   37 1
    15    8    9 2
    16    9   10 1
    17    9   11 1
    18   11   16 am
    19   11   12 1
    20   12   13 1
    21   12   14 1
    22   12   27 1
    23   14   15 2
    24   14   19 1
    25   15   16 1
    26   15   18 1
    27   16   17 2
    28   19   20 2
    29   19   21 1
    30   21   25 1
    31   21   22 2
    32   22   23 1
    33   22   43 1
    34   23   24 2
    35   23   44 1
    36   24   25 1
    37   24   26 1
    38   26   45 1
    39   26   46 1
    40   26   47 1
    41   27   32 ar
    42   27   28 ar
    43   28   29 ar
    44   28   48 1
    45   29   30 ar
    46   29   49 1
    47   30   31 ar
    48   30   50 1
    49   31   32 ar
    50   31   33 1
    51   32   51 1
    52   33   34 1
    53   34   35 1
    54   34   52 1
    55   34   53 1
    56   35   36 2
    57   35   54 1
    58   36   55 1
    59   36   56 1
    60   37   57 1
    61   37   58 1
    62   37   59 1
@<TRIPOS>MOLECULE
ZINC35484159
   69    72     0     0     0
SMALL
USER_CHARGES

@<TRIPOS>ATOM
      1 C1         -1.8822    1.2678    1.4249 C.3       1 <0>        -0.1509
      2 C2         -1.5785   -0.2206    1.2425 C.3       1 <0>        -0.1222
      3 C3         -2.8754   -0.9719    0.9352 C.3       1 <0>        -0.1175
      4 C4         -2.5716   -2.4603    0.7528 C.3       1 <0>         0.0591
      5 O1         -3.7830   -3.1620    0.4659 O.3       1 <0>        -0.3094
      6 C5         -3.6880   -4.5051    0.2747 C.ar      1 <0>         0.0857
      7 C6         -2.4569   -5.1343    0.3671 C.ar      1 <0>        -0.1771
      8 C7         -2.3622   -6.4997    0.1729 C.ar      1 <0>        -0.1036
      9 C8         -3.4937   -7.2403   -0.1140 C.ar      1 <0>        -0.0596
     10 C9         -4.7249   -6.6188   -0.2081 C.ar      1 <0>        -0.1344
     11 C10        -4.8278   -5.2514   -0.0085 C.ar      1 <0>         0.0925
     12 O2         -6.0391   -4.6393   -0.0947 O.3       1 <0>        -0.3123
     13 C11        -7.1805   -5.4813   -0.2691 C.3       1 <0>         0.0264
     14 C12        -3.3847   -8.7285   -0.3252 C.3       1 <0>         0.2677
     15 H1         -4.3134   -9.2175   -0.0310 H         1 <0>         0.0648
     16 C13        -3.0771   -9.0264   -1.7742 C.2       1 <0>        -0.4824
     17 C14        -3.9064   -8.6812   -2.9331 C.2       1 <0>         0.5052
     18 C15        -3.5364   -9.1677   -4.2764 C.2       1 <0>         0.0078
     19 C16        -4.1746   -8.8532   -5.4563 C.2       1 <0>        -0.0279
     20 N1         -3.5149   -9.5096   -6.4507 N.pl3     1 <0>        -0.3655
     21 C17        -3.7096   -9.5620   -7.8028 C.2       1 <0>         0.0347
     22 C18        -2.8995  -10.3030   -8.5857 C.2       1 <0>        -0.1387
     23 C19        -1.8402  -11.0340   -8.0202 C.2       1 <0>        -0.1494
     24 C20        -1.6332  -10.9920   -6.6778 C.2       1 <0>        -0.0103
     25 C21        -2.4888  -10.2121   -5.8693 C.2       1 <0>         0.1706
     26 N2         -2.5129   -9.9920   -4.5653 N.2       1 <0>        -0.3268
     27 C22        -0.5013  -11.7702   -6.0579 C.3       1 <0>        -0.0994
     28 C23        -5.3740   -7.9548   -5.6159 C.3       1 <0>        -0.0672
     29 O3         -4.8999   -7.9933   -2.7873 O.2       1 <0>        -0.5354
     30 C24        -1.8884   -9.6729   -1.7961 C.2       1 <0>         0.2762
     31 O4         -1.2570  -10.1151   -2.9082 O.3       1 <0>        -0.5501
     32 C25        -1.3892   -9.8184   -0.4130 C.2       1 <0>         0.5102
     33 O5         -0.3453  -10.3566   -0.1015 O.2       1 <0>        -0.5250
     34 N3         -2.2614   -9.2673    0.4505 N.am      1 <0>        -0.6095
     35 C26        -2.1155   -9.2141    1.9073 C.3       1 <0>         0.1376
     36 C27        -2.7503  -10.4595    2.5292 C.3       1 <0>         0.0427
     37 O6         -2.0242  -11.6198    2.1187 O.3       1 <0>        -0.3701
     38 C28        -2.5379  -12.8441    2.6472 C.3       1 <0>         0.0334
     39 H2         -0.9583    1.8030    1.6438 H         1 <0>         0.0548
     40 H3         -2.3233    1.6634    0.5100 H         1 <0>         0.0551
     41 H4         -2.5816    1.3973    2.2509 H         1 <0>         0.0547
     42 H5         -0.8791   -0.3501    0.4165 H         1 <0>         0.0645
     43 H6         -1.1374   -0.6162    2.1574 H         1 <0>         0.0639
     44 H7         -3.5747   -0.8424    1.7612 H         1 <0>         0.0716
     45 H8         -3.3164   -0.5763    0.0203 H         1 <0>         0.0722
     46 H9         -1.8723   -2.5898   -0.0732 H         1 <0>         0.0579
     47 H10        -2.1306   -2.8559    1.6677 H         1 <0>         0.0571
     48 H11        -1.5713   -4.5579    0.5905 H         1 <0>         0.1256
     49 H12        -1.4020   -6.9889    0.2452 H         1 <0>         0.1197
     50 H13        -5.6073   -7.1996   -0.4328 H         1 <0>         0.1382
     51 H14        -8.0648   -4.8654   -0.4327 H         1 <0>         0.0912
     52 H15        -7.0251   -6.1301   -1.1311 H         1 <0>         0.0638
     53 H16        -7.3222   -6.0907    0.6234 H         1 <0>         0.0487
     54 H17        -4.5204   -9.0047   -8.2483 H         1 <0>         0.1503
     55 H18        -3.0654  -10.3353   -9.6524 H         1 <0>         0.1401
     56 H19        -1.1938  -11.6271   -8.6501 H         1 <0>         0.1319
     57 H20         0.0949  -12.2330   -6.8443 H         1 <0>         0.0598
     58 H21         0.1266  -11.0963   -5.4750 H         1 <0>         0.0839
     59 H22        -0.9066  -12.5441   -5.4061 H         1 <0>         0.0766
     60 H23        -5.0411   -6.9293   -5.7756 H         1 <0>         0.0662
     61 H24        -5.9625   -8.2833   -6.4725 H         1 <0>         0.0512
     62 H25        -5.9858   -8.0021   -4.7151 H         1 <0>         0.1014
     63 H26        -1.0571   -9.1784    2.1653 H         1 <0>         0.0844
     64 H27        -2.6130   -8.3230    2.2899 H         1 <0>         0.0897
     65 H28        -2.7210  -10.3782    3.6158 H         1 <0>         0.0520
     66 H29        -3.7857  -10.5431    2.1989 H         1 <0>         0.0502
     67 H30        -2.5042  -12.8122    3.7362 H         1 <0>         0.0344
     68 H31        -3.5689  -12.9771    2.3193 H         1 <0>         0.0366
     69 H32        -1.9325  -13.6768    2.2892 H         1 <0>         0.0822
@<TRIPOS>BOND
     1    1    2 1
     2    1   39 1
     3    1   40 1
     4    1   41 1
     5    2    3 1
     6    2   42 1
     7    2   43 1
     8    3    4 1
     9    3   44 1
    10    3   45 1
    11    4    5 1
    12    4   46 1
    13    4   47 1
    14    5    6 1
    15    6   11 ar
    16    6    7 ar
    17    7    8 ar
    18    7   48 1
    19    8    9 ar
    20    8   49 1
    21    9   10 ar
    22    9   14 1
    23   10   11 ar
    24   10   50 1
    25   11   12 1
    26   12   13 1
    27   13   51 1
    28   13   52 1
    29   13   53 1
    30   14   16 1
    31   14   34 1
    32   14   15 1
    33   16   30 2
    34   16   17 1
    35   17   29 2
    36   17   18 1
    37   18   26 1
    38   18   19 2
    39   19   20 1
    40   19   28 1
    41   20   25 1
    42   20   21 1
    43   21   22 2
    44   21   54 1
    45   22   23 1
    46   22   55 1
    47   23   24 2
    48   23   56 1
    49   24   25 1
    50   24   27 1
    51   25   26 2
    52   27   57 1
    53   27   58 1
    54   27   59 1
    55   28   60 1
    56   28   61 1
    57   28   62 1
    58   30   32 1
    59   30   31 1
    60   32   34 am
    61   32   33 2
    62   34   35 1
    63   35   36 1
    64   35   63 1
    65   35   64 1
    66   36   37 1
    67   36   65 1
    68   36   66 1
    69   37   38 1
    70   38   67 1
    71   38   68 1
    72   38   69 1
@<TRIPOS>MOLECULE
ZINC33813886
   62    66     0     0     0
SMALL
USER_CHARGES

@<TRIPOS>ATOM
      1 C1          1.9823    1.2192   -8.3943 C.3       1 <0>        -0.1507
      2 C2          1.6164    0.0784   -7.4426 C.3       1 <0>        -0.1224
      3 C3          2.2869   -1.2137   -7.9136 C.3       1 <0>        -0.1170
      4 C4          1.9210   -2.3544   -6.9620 C.3       1 <0>         0.0577
      5 O1          2.5472   -3.5612   -7.4019 O.3       1 <0>        -0.3076
      6 C5          2.3226   -4.6791   -6.6607 C.ar      1 <0>         0.0964
      7 C6          1.5126   -4.6167   -5.5382 C.ar      1 <0>        -0.1704
      8 C7          1.2850   -5.7541   -4.7861 C.ar      1 <0>        -0.0843
      9 C8          1.8643   -6.9552   -5.1509 C.ar      1 <0>        -0.0595
     10 C9          2.6738   -7.0242   -6.2694 C.ar      1 <0>        -0.1491
     11 C10         2.9011   -5.8892   -7.0311 C.ar      1 <0>         0.0961
     12 O2          3.6924   -5.9566   -8.1351 O.3       1 <0>        -0.3094
     13 C11         4.1656   -7.2501   -8.5162 C.3       1 <0>         0.0282
     14 C12         1.6132   -8.1919   -4.3272 C.3       1 <0>         0.2670
     15 H1          1.9403   -9.0776   -4.8718 H         1 <0>         0.0889
     16 C13         2.3424   -8.0944   -3.0074 C.2       1 <0>        -0.4713
     17 C14         1.4008   -8.1427   -2.0371 C.2       1 <0>         0.2672
     18 C15         0.0695   -8.2688   -2.6577 C.2       1 <0>         0.5123
     19 O3         -0.9801   -8.3361   -2.0483 O.2       1 <0>        -0.4896
     20 N1          0.1866   -8.2990   -3.9990 N.am      1 <0>        -0.5055
     21 C16        -0.8551   -8.4103   -4.9094 C.2       1 <0>         0.3059
     22 N2         -0.7923   -8.4488   -6.2232 N.2       1 <0>        -0.5568
     23 C17        -1.8849   -8.5582   -6.9554 C.2       1 <0>         0.0690
     24 C18        -3.0662   -8.6284   -6.2931 C.2       1 <0>        -0.2889
     25 S1         -2.5048   -8.5362   -4.6007 S.3       1 <0>         0.1516
     26 O4          1.6431   -8.0851   -0.7057 O.3       1 <0>        -0.6389
     27 C19         3.7924   -7.9718   -2.8151 C.2       1 <0>         0.5432
     28 O5          4.2712   -6.9127   -2.4456 O.2       1 <0>        -0.4876
     29 C20         4.6361   -9.0841   -3.0587 C.2       1 <0>        -0.1430
     30 C21         4.2380  -10.3797   -3.3626 C.2       1 <0>         0.1554
     31 N3          5.3227  -11.1189   -3.5169 N.2       1 <0>        -0.5033
     32 C22         6.4107  -10.3715   -3.3291 C.2       1 <0>         0.2340
     33 N4          6.0191   -9.0935   -3.0470 N.pl3     1 <0>        -0.3290
     34 C23         6.9402   -8.1204   -2.8173 C.2       1 <0>         0.0815
     35 C24         8.2638   -8.3983   -2.8670 C.2       1 <0>        -0.1575
     36 C25         8.6986   -9.6981   -3.1578 C.2       1 <0>        -0.0927
     37 C26         7.7804  -10.6818   -3.3807 C.2       1 <0>        -0.0926
     38 C27         2.8155  -10.8596   -3.4929 C.3       1 <0>        -0.0863
     39 H2          3.0641    1.3531   -8.4019 H         1 <0>         0.0552
     40 H3          1.6390    0.9775   -9.4002 H         1 <0>         0.0548
     41 H4          1.5046    2.1396   -8.0587 H         1 <0>         0.0553
     42 H5          1.9597    0.3201   -6.4367 H         1 <0>         0.0650
     43 H6          0.5347   -0.0555   -7.4350 H         1 <0>         0.0642
     44 H7          1.9436   -1.4554   -8.9195 H         1 <0>         0.0720
     45 H8          3.3686   -1.0797   -7.9213 H         1 <0>         0.0726
     46 H9          2.2642   -2.1127   -5.9561 H         1 <0>         0.0598
     47 H10         0.8392   -2.4883   -6.9544 H         1 <0>         0.0581
     48 H11         1.0594   -3.6795   -5.2507 H         1 <0>         0.1295
     49 H12         0.6534   -5.7042   -3.9114 H         1 <0>         0.1173
     50 H13         3.1255   -7.9636   -6.5520 H         1 <0>         0.1300
     51 H14         4.7805   -7.1626   -9.4119 H         1 <0>         0.0954
     52 H15         4.7608   -7.6722   -7.7065 H         1 <0>         0.0508
     53 H16         3.3163   -7.9019   -8.7208 H         1 <0>         0.0547
     54 H17        -1.8402   -8.5900   -8.0341 H         1 <0>         0.1680
     55 H18        -4.0696   -8.7195   -6.6820 H         1 <0>         0.1904
     56 H19         6.6126   -7.1160   -2.5933 H         1 <0>         0.1735
     57 H20         8.9860   -7.6168   -2.6827 H         1 <0>         0.1514
     58 H21         9.7545   -9.9214   -3.1982 H         1 <0>         0.1421
     59 H22         8.1031  -11.6873   -3.6070 H         1 <0>         0.1507
     60 H23         2.4552  -10.6587   -4.5018 H         1 <0>         0.0788
     61 H24         2.7744  -11.9314   -3.2992 H         1 <0>         0.0733
     62 H25         2.1878  -10.3357   -2.7719 H         1 <0>         0.0961
@<TRIPOS>BOND
     1    1    2 1
     2    1   39 1
     3    1   40 1
     4    1   41 1
     5    2    3 1
     6    2   42 1
     7    2   43 1
     8    3    4 1
     9    3   44 1
    10    3   45 1
    11    4    5 1
    12    4   46 1
    13    4   47 1
    14    5    6 1
    15    6   11 ar
    16    6    7 ar
    17    7    8 ar
    18    7   48 1
    19    8    9 ar
    20    8   49 1
    21    9   10 ar
    22    9   14 1
    23   10   11 ar
    24   10   50 1
    25   11   12 1
    26   12   13 1
    27   13   51 1
    28   13   52 1
    29   13   53 1
    30   14   15 1
    31   14   20 1
    32   14   16 1
    33   16   17 2
    34   16   27 1
    35   17   18 1
    36   17   26 1
    37   18   19 2
    38   18   20 am
    39   20   21 1
    40   21   25 1
    41   21   22 2
    42   22   23 1
    43   23   24 2
    44   23   54 1
    45   24   25 1
    46   24   55 1
    47   27   28 2
    48   27   29 1
    49   29   33 1
    50   29   30 2
    51   30   31 1
    52   30   38 1
    53   31   32 2
    54   32   37 1
    55   32   33 1
    56   33   34 1
    57   34   35 2
    58   34   56 1
    59   35   36 1
    60   35   57 1
    61   36   37 2
    62   36   58 1
    63   37   59 1
    64   38   60 1
    65   38   61 1
    66   38   62 1
@<TRIPOS>MOLECULE
ZINC40110667
   70    72     0     0     0
SMALL
USER_CHARGES

@<TRIPOS>ATOM
      1 C1          0.0085    1.6460   -0.1918 C.3       1 <0>        -0.1537
      2 C2         -0.0179    0.1163   -0.2002 C.3       1 <0>        -0.1260
      3 C3          0.7797   -0.4010   -1.3990 C.3       1 <0>        -0.1193
      4 C4          0.7533   -1.9308   -1.4073 C.3       1 <0>        -0.1174
      5 C5          1.5509   -2.4481   -2.6061 C.3       1 <0>        -0.1186
      6 C6          1.5244   -3.9778   -2.6145 C.3       1 <0>         0.0603
      7 O1          2.2694   -4.4610   -3.7342 O.3       1 <0>        -0.3191
      8 C7          2.3457   -5.8090   -3.8892 C.ar      1 <0>         0.1210
      9 C8          1.7117   -6.6493   -2.9855 C.ar      1 <0>        -0.2117
     10 C9          1.7903   -8.0191   -3.1456 C.ar      1 <0>        -0.0780
     11 C10         2.5005   -8.5529   -4.2050 C.ar      1 <0>        -0.1108
     12 C11         3.1337   -7.7176   -5.1067 C.ar      1 <0>        -0.0406
     13 C12         3.0529   -6.3469   -4.9546 C.ar      1 <0>        -0.1565
     14 C13         2.5851  -10.0477   -4.3769 C.3       1 <0>         0.2669
     15 H1          1.8999  -10.5430   -3.6889 H         1 <0>         0.0672
     16 C14         3.9992  -10.5197   -4.1314 C.2       1 <0>        -0.5108
     17 C15         4.4232  -11.0973   -5.2798 C.2       1 <0>         0.2696
     18 C16         3.3420  -11.0285   -6.2857 C.2       1 <0>         0.5160
     19 O2          3.4148  -11.4621   -7.4183 O.2       1 <0>        -0.5205
     20 N1          2.2639  -10.4154   -5.7609 N.am      1 <0>        -0.6100
     21 C17         0.9959  -10.1598   -6.4487 C.3       1 <0>         0.1393
     22 C18         1.0578   -8.7979   -7.1431 C.3       1 <0>         0.0497
     23 O3          2.0466   -8.8335   -8.1741 O.3       1 <0>        -0.5527
     24 O4          5.6425  -11.6493   -5.4760 O.3       1 <0>        -0.6525
     25 C19         4.7646  -10.3787   -2.8892 C.2       1 <0>         0.4982
     26 O5          5.7523   -9.6689   -2.8605 O.2       1 <0>        -0.4620
     27 C20         4.3364  -11.0993   -1.6712 C.ar      1 <0>        -0.0751
     28 C21         3.2775  -12.0079   -1.7295 C.ar      1 <0>        -0.0861
     29 C22         2.8835  -12.6770   -0.5896 C.ar      1 <0>        -0.0371
     30 C23         3.5345  -12.4492    0.6102 C.ar      1 <0>        -0.6699
     31 C24         4.5846  -11.5501    0.6751 C.ar      1 <0>        -0.0365
     32 C25         4.9927  -10.8785   -0.4584 C.ar      1 <0>        -0.0981
     33 S1          3.0238  -13.3075    2.0618 S.o2      1 <0>         2.6932
     34 O6          3.4344  -12.5152    3.1677 O.2       1 <0>        -0.9569
     35 O7          1.6692  -13.6839    1.8556 O.2       1 <0>        -0.9568
     36 N2          3.8994  -14.7112    2.1343 N.pl3     1 <0>        -1.0056
     37 C26         5.1859  -14.7367    2.8347 C.3       1 <0>         0.0924
     38 C27         3.3875  -15.9275    1.4980 C.3       1 <0>         0.0841
     39 H2          1.0398    1.9912   -0.1183 H         1 <0>         0.0536
     40 H3         -0.4357    2.0221   -1.1134 H         1 <0>         0.0532
     41 H4         -0.5597    2.0145    0.6623 H         1 <0>         0.0528
     42 H5          0.4263   -0.2599    0.7214 H         1 <0>         0.0614
     43 H6         -1.0492   -0.2289   -0.2737 H         1 <0>         0.0609
     44 H7          0.3355   -0.0249   -2.3205 H         1 <0>         0.0627
     45 H8          1.8110   -0.0559   -1.3255 H         1 <0>         0.0632
     46 H9          1.1975   -2.3069   -0.4858 H         1 <0>         0.0653
     47 H10        -0.2780   -2.2760   -1.4808 H         1 <0>         0.0645
     48 H11         1.1066   -2.0720   -3.5277 H         1 <0>         0.0721
     49 H12         2.5822   -2.1029   -2.5326 H         1 <0>         0.0730
     50 H13         1.9687   -4.3539   -1.6929 H         1 <0>         0.0599
     51 H14         0.4932   -4.3230   -2.6880 H         1 <0>         0.0589
     52 H15         1.1574   -6.2328   -2.1575 H         1 <0>         0.1217
     53 H16         1.2969   -8.6737   -2.4424 H         1 <0>         0.1213
     54 H17         3.6881   -8.1370   -5.9332 H         1 <0>         0.1281
     55 H18         3.5439   -5.6948   -5.6617 H         1 <0>         0.1247
     56 H19         0.8218  -10.9386   -7.1911 H         1 <0>         0.0837
     57 H20         0.1824  -10.1611   -5.7232 H         1 <0>         0.0865
     58 H21         0.0858   -8.5681   -7.5796 H         1 <0>         0.0442
     59 H22         1.3197   -8.0303   -6.4149 H         1 <0>         0.0562
     60 H23         2.1406   -8.0014   -8.6578 H         1 <0>         0.3692
     61 H24         2.7681  -12.1861   -2.6650 H         1 <0>         0.1457
     62 H25         2.0648  -13.3800   -0.6333 H         1 <0>         0.1396
     63 H26         5.0882  -11.3768    1.6147 H         1 <0>         0.1382
     64 H27         5.8152  -10.1805   -0.4073 H         1 <0>         0.1394
     65 H28         5.0250  -14.9974    3.8807 H         1 <0>         0.0602
     66 H29         5.8371  -15.4780    2.3715 H         1 <0>         0.0748
     67 H30         5.6528  -13.7537    2.7729 H         1 <0>         0.0728
     68 H31         2.4258  -15.7158    1.0306 H         1 <0>         0.0863
     69 H32         4.0936  -16.2655    0.7395 H         1 <0>         0.0642
     70 H33         3.2623  -16.7060    2.2505 H         1 <0>         0.0658
@<TRIPOS>BOND
     1    1    2 1
     2    1   39 1
     3    1   40 1
     4    1   41 1
     5    2    3 1
     6    2   42 1
     7    2   43 1
     8    3    4 1
     9    3   44 1
    10    3   45 1
    11    4    5 1
    12    4   46 1
    13    4   47 1
    14    5    6 1
    15    5   48 1
    16    5   49 1
    17    6    7 1
    18    6   50 1
    19    6   51 1
    20    7    8 1
    21    8   13 ar
    22    8    9 ar
    23    9   10 ar
    24    9   52 1
    25   10   11 ar
    26   10   53 1
    27   11   12 ar
    28   11   14 1
    29   12   13 ar
    30   12   54 1
    31   13   55 1
    32   14   15 1
    33   14   20 1
    34   14   16 1
    35   16   17 2
    36   16   25 1
    37   17   18 1
    38   17   24 1
    39   18   19 2
    40   18   20 am
    41   20   21 1
    42   21   22 1
    43   21   56 1
    44   21   57 1
    45   22   23 1
    46   22   58 1
    47   22   59 1
    48   23   60 1
    49   25   26 2
    50   25   27 1
    51   27   32 ar
    52   27   28 ar
    53   28   29 ar
    54   28   61 1
    55   29   30 ar
    56   29   62 1
    57   30   31 ar
    58   30   33 1
    59   31   32 ar
    60   31   63 1
    61   32   64 1
    62   33   34 2
    63   33   35 2
    64   33   36 1
    65   36   37 1
    66   36   38 1
    67   37   65 1
    68   37   66 1
    69   37   67 1
    70   38   68 1
    71   38   69 1
    72   38   70 1
@<TRIPOS>MOLECULE
ZINC13400771
   49    51     0     0     0
SMALL
USER_CHARGES
5-[4-(4-ethoxy-3-nitro-benzoyl)piperazin-1-yl]sulfonylthiophene-3-carboxylic acid
@<TRIPOS>ATOM
      1 C1          0.8269   -6.5742    0.4407 C.3       1 <0>        -0.1525
      2 C2          1.0720   -5.0654    0.3748 C.3       1 <0>         0.0439
      3 O1         -0.1803   -4.3829    0.2853 O.3       1 <0>        -0.2764
      4 C3         -0.1401   -3.0280    0.2183 C.ar      1 <0>         0.2211
      5 C4          1.0837   -2.3689    0.2380 C.ar      1 <0>        -0.2181
      6 C5          1.1289   -0.9948    0.1649 C.ar      1 <0>        -0.0008
      7 C6         -0.0581   -0.2619    0.0815 C.ar      1 <0>        -0.1682
      8 C7         -1.2860   -0.9281    0.0616 C.ar      1 <0>         0.0363
      9 C8         -1.3226   -2.3031    0.1298 C.ar      1 <0>        -0.0883
     10 N1         -2.6230   -3.0099    0.1092 N.pl3     1 <0>         0.0364
     11 O2         -3.6598   -2.3754    0.0320 O.2       1 <0>        -0.1728
     12 O3         -2.6562   -4.2260    0.1694 O.3       1 <0>        -0.1339
     13 C9         -0.0144    1.2116    0.0087 C.2       1 <0>         0.5681
     14 O4         -0.8007    1.8088   -0.7008 O.2       1 <0>        -0.5221
     15 N2          0.8935    1.8955    0.7329 N.am      1 <0>        -0.6000
     16 C10         1.0325    3.3502    0.5770 C.3       1 <0>         0.0944
     17 C11         0.8671    4.0047    1.9591 C.3       1 <0>         0.1061
     18 N3          1.7400    3.3082    2.9145 N.pl3     1 <0>        -0.9968
     19 C12         1.6048    1.8527    3.0664 C.3       1 <0>         0.1066
     20 C13         1.7664    1.1990    1.6884 C.3       1 <0>         0.0739
     21 S1          2.8562    4.1483    3.8035 S.o2      1 <0>         2.7302
     22 O5          2.3929    5.4898    3.8741 O.2       1 <0>        -0.9452
     23 O6          3.1195    3.3712    4.9638 O.2       1 <0>        -0.9506
     24 C14         4.3497    4.1798    2.8690 C.2       1 <0>        -0.8015
     25 C15         4.7493    5.0893    1.9592 C.2       1 <0>         0.0504
     26 C16         6.0322    4.8752    1.3371 C.2       1 <0>        -0.1915
     27 C17         6.7354    3.7511    1.7211 C.2       1 <0>        -0.1117
     28 S2          5.6949    3.0127    2.8917 S.3       1 <0>         0.1543
     29 C18         6.5654    5.8096    0.3349 C.2       1 <0>         0.5039
     30 O7          5.9232    6.7916    0.0171 O.co2     1 <0>        -0.6258
     31 H1          1.7821   -7.0948    0.5089 H         1 <0>         0.0834
     32 H2          0.2231   -6.8063    1.3180 H         1 <0>         0.0715
     33 H3          0.3009   -6.8964   -0.4580 H         1 <0>         0.0712
     34 H4          1.6758   -4.8333   -0.5025 H         1 <0>         0.0723
     35 H5          1.5980   -4.7432    1.2735 H         1 <0>         0.0731
     36 H6          2.0005   -2.9358    0.3062 H         1 <0>         0.1605
     37 H7          2.0803   -0.4837    0.1758 H         1 <0>         0.1576
     38 H8         -2.2053   -0.3655   -0.0076 H         1 <0>         0.1688
     39 H9          2.0187    3.5825    0.1750 H         1 <0>         0.0848
     40 H10         0.2624    3.7209   -0.0995 H         1 <0>         0.1114
     41 H11        -0.1702    3.9221    2.2838 H         1 <0>         0.0845
     42 H12         1.1505    5.0557    1.9037 H         1 <0>         0.1098
     43 H13         0.6201    1.6168    3.4699 H         1 <0>         0.0832
     44 H14         2.3754    1.4795    3.7409 H         1 <0>         0.1083
     45 H15         1.4810    0.1486    1.7460 H         1 <0>         0.1019
     46 H16         2.8033    1.2790    1.3620 H         1 <0>         0.0881
     47 H17         4.1369    5.9429    1.7089 H         1 <0>         0.1532
     48 H18         7.7012    3.4137    1.3750 H         1 <0>         0.1977
     49 O8          7.7663    5.5773   -0.2317 O.co2     1 <0>        -0.7505
@<TRIPOS>BOND
     1    1    2 1
     2    1   31 1
     3    1   32 1
     4    1   33 1
     5    2    3 1
     6    2   34 1
     7    2   35 1
     8    3    4 1
     9    4    9 ar
    10    4    5 ar
    11    5    6 ar
    12    5   36 1
    13    6    7 ar
    14    6   37 1
    15    7    8 ar
    16    7   13 1
    17    8    9 ar
    18    8   38 1
    19    9   10 1
    20   10   11 2
    21   10   12 1
    22   13   14 2
    23   13   15 am
    24   15   20 1
    25   15   16 1
    26   16   17 1
    27   16   39 1
    28   16   40 1
    29   17   18 1
    30   17   41 1
    31   17   42 1
    32   18   19 1
    33   18   21 1
    34   19   20 1
    35   19   43 1
    36   19   44 1
    37   20   45 1
    38   20   46 1
    39   21   22 2
    40   21   23 2
    41   21   24 1
    42   24   28 1
    43   24   25 2
    44   25   26 1
    45   25   47 1
    46   26   27 2
    47   26   29 1
    48   27   28 1
    49   27   48 1
    50   29   30 2
    51   29   49 1
@<TRIPOS>MOLECULE
ZINC33401019
   57    61     0     0     0
SMALL
USER_CHARGES
(3aR,4S,6R,6aR)-2-(4-acetylphenyl)-6-(carboxymethyl)-4-(1-naphthyl)-1,3-dioxo-3a,4,5,6a-tetrahydropyrrolo[3,4-c]pyrrole-6-carboxylic acid
@<TRIPOS>ATOM
      1 C1          0.8020   -2.8778    9.6606 C.3       1 <0>        -0.2062
      2 C2         -0.0235   -2.2091    8.5918 C.2       1 <0>         0.3993
      3 O1         -1.1670   -1.8794    8.8262 O.2       1 <0>        -0.4641
      4 C3          0.5566   -1.9565    7.2660 C.ar      1 <0>        -0.1914
      5 C4         -0.2084   -1.3354    6.2713 C.ar      1 <0>        -0.0361
      6 C5          0.3392   -1.1013    5.0308 C.ar      1 <0>        -0.1591
      7 C6          1.6510   -1.4808    4.7642 C.ar      1 <0>         0.1675
      8 C7          2.4134   -2.1032    5.7476 C.ar      1 <0>        -0.1558
      9 C8          1.8763   -2.3367    6.9928 C.ar      1 <0>        -0.0463
     10 N1          2.2024   -1.2415    3.5032 N.am      1 <0>        -0.5395
     11 C9          1.5184   -0.6399    2.4760 C.2       1 <0>         0.5737
     12 O2          0.4700   -0.0346    2.5373 O.2       1 <0>        -0.4411
     13 C10         2.3291   -0.8894    1.3042 C.3       1 <0>        -0.2104
     14 H1          1.6101   -1.6395    0.9431 H         1 <0>         0.1686
     15 C11         2.5117   -0.3636   -0.0582 C.3       1 <0>         0.1129
     16 H2          1.7240   -0.7239   -0.7363 H         1 <0>         0.1535
     17 N2          3.8806   -0.8300   -0.4573 N.4       1 <0>        -0.5118
     18 C12         4.4943   -1.4950    0.7424 C.3       1 <0>         0.0677
     19 C13         3.7870   -0.7991    1.9115 C.3       1 <0>        -0.0946
     20 H3          4.3791    0.0794    2.2077 H         1 <0>         0.1908
     21 C14         3.4801   -1.5819    3.1589 C.2       1 <0>         0.5481
     22 O3          4.2136   -2.3538    3.7381 O.2       1 <0>        -0.4067
     23 C15         4.1946   -2.9954    0.7423 C.3       1 <0>        -0.1717
     24 C16         4.7816   -3.6248   -0.4948 C.2       1 <0>         0.4479
     25 O4          5.3784   -2.9433   -1.2943 O.co2     1 <0>        -0.5768
     26 O5          4.6414   -4.9426   -0.7085 O.co2     1 <0>        -0.7608
     27 C17         5.9802   -1.2488    0.7935 C.2       1 <0>         0.4633
     28 O6          6.5144   -0.9939    1.8468 O.co2     1 <0>        -0.6067
     29 O7          6.7101   -1.3127   -0.3312 O.co2     1 <0>        -0.6695
     30 C18         2.4481    1.1421   -0.0550 C.ar      1 <0>        -0.1115
     31 C19         3.5949    1.8754   -0.0469 C.ar      1 <0>        -0.1086
     32 C20         3.5560    3.2681   -0.0443 C.ar      1 <0>        -0.1062
     33 C21         2.3699    3.9361   -0.0498 C.ar      1 <0>        -0.0882
     34 C22         1.1651    3.2133   -0.0582 C.ar      1 <0>        -0.0459
     35 C23         1.2047    1.7963   -0.0608 C.ar      1 <0>        -0.0251
     36 C24        -0.0006    1.0734   -0.0696 C.ar      1 <0>        -0.0954
     37 C25        -1.1862    1.7414   -0.0808 C.ar      1 <0>        -0.1023
     38 C26        -1.2252    3.1346   -0.0731 C.ar      1 <0>        -0.1106
     39 C27        -0.0787    3.8677   -0.0646 C.ar      1 <0>        -0.1049
     40 H4          1.8038   -3.1003    9.2646 H         1 <0>         0.0860
     41 H5          0.3135   -3.8138    9.9692 H         1 <0>         0.0961
     42 H6          0.8912   -2.2074   10.5281 H         1 <0>         0.0957
     43 H7         -1.2266   -1.0401    6.4775 H         1 <0>         0.1398
     44 H8         -0.2502   -0.6225    4.2629 H         1 <0>         0.1564
     45 H9          3.4299   -2.3997    5.5347 H         1 <0>         0.1593
     46 H10         2.4703   -2.8158    7.7570 H         1 <0>         0.1438
     47 H11         3.7967   -1.5415   -1.2920 H         1 <0>         0.4611
     48 H12         4.6395   -3.4582    1.6356 H         1 <0>         0.1090
     49 H13         3.1058   -3.1519    0.7520 H         1 <0>         0.0680
     50 H14         4.5494    1.3700   -0.0421 H         1 <0>         0.1295
     51 H15         4.4806    3.8261   -0.0375 H         1 <0>         0.1349
     52 H16         2.3550    5.0160   -0.0473 H         1 <0>         0.1329
     53 H17         0.0141   -0.0065   -0.0720 H         1 <0>         0.1204
     54 H18        -2.1109    1.1835   -0.0920 H         1 <0>         0.1243
     55 H19        -2.1797    3.6400   -0.0783 H         1 <0>         0.1240
     56 H20        -0.1243    4.9467   -0.0624 H         1 <0>         0.1288
     57 H21         4.4852    0.0337   -0.7711 H         1 <0>         0.4441
@<TRIPOS>BOND
     1    1    2 1
     2    1   40 1
     3    1   41 1
     4    1   42 1
     5    2    3 2
     6    2    4 1
     7    4    9 ar
     8    4    5 ar
     9    5    6 ar
    10    5   43 1
    11    6    7 ar
    12    6   44 1
    13    7    8 ar
    14    7   10 1
    15    8    9 ar
    16    8   45 1
    17    9   46 1
    18   10   21 am
    19   10   11 am
    20   11   12 2
    21   11   13 1
    22   13   14 1
    23   13   19 1
    24   13   15 1
    25   15   16 1
    26   15   17 1
    27   15   30 1
    28   17   18 1
    29   17   47 1
    30   17   57 1
    31   18   19 1
    32   18   23 1
    33   18   27 1
    34   19   20 1
    35   19   21 1
    36   21   22 2
    37   23   24 1
    38   23   48 1
    39   23   49 1
    40   24   25 2
    41   24   26 1
    42   27   28 2
    43   27   29 1
    44   30   35 ar
    45   30   31 ar
    46   31   32 ar
    47   31   50 1
    48   32   33 ar
    49   32   51 1
    50   33   34 ar
    51   33   52 1
    52   34   39 ar
    53   34   35 ar
    54   35   36 ar
    55   36   37 ar
    56   36   53 1
    57   37   38 ar
    58   37   54 1
    59   38   39 ar
    60   38   55 1
    61   39   56 1
@<TRIPOS>MOLECULE
ZINC35565765
   49    52     0     0     0
SMALL
USER_CHARGES

@<TRIPOS>ATOM
      1 C1         -0.0001    1.9243   -0.4677 C.3       1 <0>        -0.0851
      2 C2          1.0638    0.8969   -0.7566 C.2       1 <0>         0.1207
      3 C3          0.9411   -0.0139   -1.7996 C.2       1 <0>        -0.2600
      4 S1          2.4693   -0.9206   -1.6207 S.3       1 <0>         0.1589
      5 C4          3.0819   -0.0847   -0.2947 C.2       1 <0>         0.0381
      6 N1          2.1585    0.8153   -0.0429 N.2       1 <0>        -0.5240
      7 C5          4.3842   -0.3111    0.4290 C.3       1 <0>        -0.0634
      8 C6         -0.1415   -0.1835   -2.7742 C.2       1 <0>         0.5543
      9 O1         -1.1532    0.4893   -2.6841 O.2       1 <0>        -0.4484
     10 C7         -0.0062   -1.1635   -3.8582 C.2       1 <0>        -0.4971
     11 C8          0.0929   -0.8957   -5.1808 C.2       1 <0>         0.2810
     12 C9          0.2136   -2.1641   -5.9256 C.2       1 <0>         0.5112
     13 O2          0.3199   -2.2563   -7.1326 O.2       1 <0>        -0.4533
     14 N2          0.1892   -3.2033   -5.0715 N.am      1 <0>        -0.5082
     15 C10         0.0559   -2.6661   -3.7121 C.3       1 <0>         0.2697
     16 H1          0.9186   -2.9488   -3.1088 H         1 <0>         0.0891
     17 C11        -1.2115   -3.1780   -3.0774 C.ar      1 <0>        -0.1441
     18 C12        -1.2353   -3.5202   -1.7338 C.ar      1 <0>        -0.0618
     19 C13        -2.4233   -3.9867   -1.1927 C.ar      1 <0>        -0.1700
     20 C14        -3.5367   -4.0944   -2.0046 C.ar      1 <0>         0.0957
     21 N3         -3.4773   -3.7601   -3.2787 N.ar      1 <0>        -0.4793
     22 C15        -2.3660   -3.3070   -3.8256 C.ar      1 <0>         0.1282
     23 C16         0.2790   -4.5393   -5.4130 C.2       1 <0>         0.3401
     24 N4          0.4104   -5.0681   -6.6165 N.2       1 <0>        -0.5532
     25 C17         0.4838   -6.3628   -6.7904 C.2       1 <0>         0.2190
     26 C18         0.4160   -7.1438   -5.6436 C.2       1 <0>        -0.3364
     27 S2          0.2544   -5.8783   -4.3939 S.3       1 <0>         0.1867
     28 C19         0.4673   -8.5972   -5.4994 C.2       1 <0>         0.5698
     29 O3          0.5862   -9.3023   -6.4837 O.2       1 <0>        -0.5028
     30 O4          0.3827   -9.1570   -4.2746 O.3       1 <0>        -0.3513
     31 C20         0.4397  -10.5833   -4.2079 C.3       1 <0>         0.0374
     32 C21         0.6333   -6.9734   -8.1600 C.3       1 <0>        -0.0915
     33 O5          0.0823    0.3401   -5.7334 O.3       1 <0>        -0.6254
     34 H2          0.2079    2.8319   -1.0343 H         1 <0>         0.0773
     35 H3         -0.9741    1.5302   -0.7576 H         1 <0>         0.0931
     36 H4         -0.0036    2.1540    0.5978 H         1 <0>         0.0699
     37 H5          5.1648    0.2961   -0.0293 H         1 <0>         0.0882
     38 H6          4.2720   -0.0289    1.4758 H         1 <0>         0.0896
     39 H7          4.6577   -1.3642    0.3639 H         1 <0>         0.0849
     40 H8         -0.3492   -3.4259   -1.1235 H         1 <0>         0.1341
     41 H9         -2.4781   -4.2628   -0.1500 H         1 <0>         0.1352
     42 H10        -4.4661   -4.4570   -1.5907 H         1 <0>         0.1539
     43 H11        -2.3570   -3.0380   -4.8716 H         1 <0>         0.1453
     44 H12        -0.3848  -11.0071   -4.7812 H         1 <0>         0.0609
     45 H13         1.3864  -10.9289   -4.6232 H         1 <0>         0.0610
     46 H14         0.3610  -10.9019   -3.1685 H         1 <0>         0.1017
     47 H15         1.6919   -7.0754   -8.3989 H         1 <0>         0.0851
     48 H16         0.1616   -7.9560   -8.1732 H         1 <0>         0.0943
     49 H17         0.1544   -6.3306   -8.8987 H         1 <0>         0.0811
@<TRIPOS>BOND
     1    1    2 1
     2    1   34 1
     3    1   35 1
     4    1   36 1
     5    2    6 1
     6    2    3 2
     7    3    4 1
     8    3    8 1
     9    4    5 1
    10    5    6 2
    11    5    7 1
    12    7   37 1
    13    7   38 1
    14    7   39 1
    15    8    9 2
    16    8   10 1
    17   10   15 1
    18   10   11 2
    19   11   12 1
    20   11   33 1
    21   12   13 2
    22   12   14 am
    23   14   15 1
    24   14   23 1
    25   15   16 1
    26   15   17 1
    27   17   22 ar
    28   17   18 ar
    29   18   19 ar
    30   18   40 1
    31   19   20 ar
    32   19   41 1
    33   20   21 ar
    34   20   42 1
    35   21   22 ar
    36   22   43 1
    37   23   27 1
    38   23   24 2
    39   24   25 1
    40   25   26 2
    41   25   32 1
    42   26   27 1
    43   26   28 1
    44   28   29 2
    45   28   30 1
    46   30   31 1
    47   31   44 1
    48   31   45 1
    49   31   46 1
    50   32   47 1
    51   32   48 1
    52   32   49 1
@<TRIPOS>MOLECULE
ZINC40142689
   51    53     0     0     0
SMALL
USER_CHARGES

@<TRIPOS>ATOM
      1 C1          1.4419    0.1174    0.4401 C.3       1 <0>         0.0255
      2 O1          0.2231    0.8488    0.2931 O.3       1 <0>        -0.3060
      3 C2         -0.9266    0.1256    0.2261 C.ar      1 <0>         0.1143
      4 C3         -0.8763   -1.2588    0.3067 C.ar      1 <0>        -0.2149
      5 C4         -2.0323   -2.0085    0.2402 C.ar      1 <0>        -0.0508
      6 C5         -3.2698   -1.3791    0.0905 C.ar      1 <0>        -0.0830
      7 C6         -3.3308    0.0326    0.0079 C.ar      1 <0>        -0.0760
      8 C7         -2.1466    0.7784    0.0830 C.ar      1 <0>         0.0907
      9 O2         -2.1894    2.1327    0.0103 O.3       1 <0>        -0.3011
     10 C8         -2.0957    2.7158   -1.2909 C.3       1 <0>         0.0561
     11 C9         -4.6224    0.7093   -0.1499 C.2       1 <0>         0.5224
     12 O3         -5.6610    0.0623   -0.1121 O.co2     1 <0>        -0.6734
     13 O4         -4.6619    1.9210   -0.3195 O.co2     1 <0>        -0.6490
     14 C10        -4.4988   -2.1760    0.0188 C.2       1 <0>         0.2399
     15 N1         -4.4308   -3.4816   -0.0094 N.2       1 <0>        -0.4336
     16 N2         -5.5035   -4.1800   -0.1696 N.2       1 <0>        -0.3006
     17 C11        -5.4244   -5.4906   -0.2969 C.2       1 <0>         0.3300
     18 N3         -4.3086   -6.2900   -0.1847 N.am      1 <0>        -0.6697
     19 C12        -4.3567   -7.6025   -0.3348 C.2       1 <0>         0.5244
     20 O5         -3.3695   -8.2994   -0.2340 O.2       1 <0>        -0.4992
     21 C13        -5.7280   -8.1833   -0.6414 C.3       1 <0>        -0.0836
     22 H1         -6.0540   -8.8635    0.1455 H         1 <0>         0.1611
     23 S1         -6.7408   -6.6463   -0.6476 S.3       1 <0>        -0.0086
     24 C14        -5.7458   -8.8725   -2.0072 C.3       1 <0>        -0.1178
     25 C15        -7.0817   -9.5376   -2.2170 C.2       1 <0>         0.5195
     26 O6         -7.9356   -9.4672   -1.3585 O.2       1 <0>        -0.5049
     27 N4         -7.3277  -10.2105   -3.3585 N.am      1 <0>        -0.6718
     28 C16        -8.6046  -10.7305   -3.6035 C.ar      1 <0>         0.1371
     29 C17        -8.7468  -11.9343   -4.2807 C.ar      1 <0>        -0.1157
     30 C18       -10.0071  -12.4454   -4.5214 C.ar      1 <0>        -0.1350
     31 C19       -11.1284  -11.7580   -4.0883 C.ar      1 <0>         0.0830
     32 C20       -10.9887  -10.5573   -3.4127 C.ar      1 <0>        -0.1317
     33 C21        -9.7300  -10.0458   -3.1646 C.ar      1 <0>        -0.0888
     34 F1        -12.3603  -12.2592   -4.3255 F         1 <0>        -0.1401
     35 H2          2.2803    0.8128    0.4804 H         1 <0>         0.0968
     36 H3          1.4077   -0.4643    1.3613 H         1 <0>         0.0537
     37 H4          1.5673   -0.5542   -0.4092 H         1 <0>         0.0526
     38 H5          0.0766   -1.7538    0.4222 H         1 <0>         0.1297
     39 H6         -1.9802   -3.0854    0.3038 H         1 <0>         0.1315
     40 H7         -2.9225    2.3632   -1.9075 H         1 <0>         0.0527
     41 H8         -2.1426    3.8016   -1.2067 H         1 <0>         0.0836
     42 H9         -1.1506    2.4276   -1.7510 H         1 <0>         0.0259
     43 H10        -5.4601   -1.6846   -0.0108 H         1 <0>         0.1834
     44 H11        -3.4546   -5.8740    0.0117 H         1 <0>         0.4188
     45 H12        -5.5817   -8.1320   -2.7900 H         1 <0>         0.1183
     46 H13        -4.9563   -9.6230   -2.0458 H         1 <0>         0.1265
     47 H14        -6.6202  -10.3346   -4.0104 H         1 <0>         0.4151
     48 H15        -7.8725  -12.4704   -4.6193 H         1 <0>         0.1366
     49 H16       -10.1181  -13.3817   -5.0481 H         1 <0>         0.1392
     50 H17       -11.8645  -10.0225   -3.0760 H         1 <0>         0.1407
     51 H18        -9.6213   -9.1116   -2.6338 H         1 <0>         0.1465
@<TRIPOS>BOND
     1    1    2 1
     2    1   35 1
     3    1   36 1
     4    1   37 1
     5    2    3 1
     6    3    8 ar
     7    3    4 ar
     8    4    5 ar
     9    4   38 1
    10    5    6 ar
    11    5   39 1
    12    6    7 ar
    13    6   14 1
    14    7    8 ar
    15    7   11 1
    16    8    9 1
    17    9   10 1
    18   10   40 1
    19   10   41 1
    20   10   42 1
    21   11   12 2
    22   11   13 1
    23   14   15 2
    24   14   43 1
    25   15   16 1
    26   16   17 2
    27   17   23 1
    28   17   18 1
    29   18   19 am
    30   18   44 1
    31   19   20 2
    32   19   21 1
    33   21   22 1
    34   21   23 1
    35   21   24 1
    36   24   25 1
    37   24   45 1
    38   24   46 1
    39   25   26 2
    40   25   27 am
    41   27   28 1
    42   27   47 1
    43   28   33 ar
    44   28   29 ar
    45   29   30 ar
    46   29   48 1
    47   30   31 ar
    48   30   49 1
    49   31   32 ar
    50   31   34 1
    51   32   33 ar
    52   32   50 1
    53   33   51 1
@<TRIPOS>MOLECULE
ZINC54362783
   45    48     0     0     0
SMALL
USER_CHARGES

@<TRIPOS>ATOM
      1 C1          1.7348   -0.6462    4.1951 C.ar      1 <0>        -0.0929
      2 C2          2.5728   -1.7408    4.0865 C.ar      1 <0>        -0.1072
      3 C3          3.3356   -1.9182    2.9489 C.ar      1 <0>        -0.0931
      4 C4          3.2600   -0.9963    1.9133 C.ar      1 <0>         0.0911
      5 C5          2.4172    0.1016    2.0251 C.ar      1 <0>        -0.0739
      6 C6          1.6573    0.2737    3.1655 C.ar      1 <0>        -0.1031
      7 N1          4.0327   -1.1731    0.7584 N.pl3     1 <0>        -0.4137
      8 C7          3.6772   -2.1036   -0.1594 C.2       1 <0>         0.3870
      9 C8          4.4643   -2.2529   -1.2928 C.2       1 <0>        -0.2994
     10 S1          5.7302   -1.0243   -1.0111 S.3       1 <0>         0.1280
     11 C9          5.1317   -0.4111    0.5557 C.2       1 <0>         0.2498
     12 S2          5.7827    0.8234    1.5473 S.2       1 <0>        -0.3813
     13 C10         4.3065   -3.1416   -2.3810 C.2       1 <0>         0.6266
     14 O1          3.3270   -3.8636   -2.4407 O.2       1 <0>        -0.5365
     15 N2          5.2397   -3.1901   -3.3522 N.am      1 <0>        -0.8447
     16 N3          2.5742   -2.8743    0.0255 N.2       1 <0>        -0.4987
     17 C11         2.6986   -4.1623    0.1898 C.2       1 <0>         0.4623
     18 C12         1.4723   -5.0236    0.3483 C.3       1 <0>        -0.1268
     19 S3         -0.0118   -3.9836    0.2669 S.3       1 <0>         0.1802
     20 C13        -1.3417   -5.1222    0.4656 C.2       1 <0>         0.1224
     21 N4         -1.2347   -6.4208    0.6377 N.2       1 <0>        -0.2901
     22 N5         -2.4086   -6.9358    0.7472 N.2       1 <0>        -0.2489
     23 C14        -3.3105   -5.9895    0.6497 C.2       1 <0>         0.2060
     24 O2         -2.6537   -4.8211    0.4747 O.3       1 <0>        -0.1926
     25 C15        -4.7749   -6.1667    0.7226 C.ar      1 <0>         0.0212
     26 C16        -5.6397   -5.0720    0.5973 C.ar      1 <0>        -0.1394
     27 C17        -7.0003   -5.2834    0.6716 C.ar      1 <0>         0.1071
     28 N6         -7.4889   -6.4950    0.8581 N.ar      1 <0>        -0.4677
     29 C18        -6.7102   -7.5534    0.9811 C.ar      1 <0>         0.1073
     30 C19        -5.3381   -7.4350    0.9130 C.ar      1 <0>        -0.1223
     31 O3          3.9227   -4.7222    0.2179 O.3       1 <0>        -0.4769
     32 H1          1.1362   -0.5119    5.0839 H         1 <0>         0.1336
     33 H2          2.6312   -2.4575    4.8923 H         1 <0>         0.1343
     34 H3          3.9905   -2.7729    2.8650 H         1 <0>         0.1216
     35 H4          2.3565    0.8206    1.2215 H         1 <0>         0.1284
     36 H5          1.0019    1.1276    3.2533 H         1 <0>         0.1367
     37 H6          6.0196   -2.6153   -3.3047 H         1 <0>         0.4013
     38 H7          5.1314   -3.7999   -4.0988 H         1 <0>         0.4123
     39 H8          1.4419   -5.7633   -0.4518 H         1 <0>         0.1485
     40 H9          1.5073   -5.5319    1.3119 H         1 <0>         0.1442
     41 H10        -5.2469   -4.0776    0.4453 H         1 <0>         0.1461
     42 H11        -7.6754   -4.4458    0.5763 H         1 <0>         0.1686
     43 H12        -7.1539   -8.5263    1.1326 H         1 <0>         0.1705
     44 H13        -4.7071   -8.3062    1.0095 H         1 <0>         0.1531
     45 H14         3.9125   -5.6879    0.2664 H         1 <0>         0.4209
@<TRIPOS>BOND
     1    1    6 ar
     2    1    2 ar
     3    1   32 1
     4    2    3 ar
     5    2   33 1
     6    3    4 ar
     7    3   34 1
     8    4    5 ar
     9    4    7 1
    10    5    6 ar
    11    5   35 1
    12    6   36 1
    13    7   11 1
    14    7    8 1
    15    8    9 2
    16    8   16 1
    17    9   10 1
    18    9   13 1
    19   10   11 1
    20   11   12 2
    21   13   14 2
    22   13   15 am
    23   15   37 1
    24   15   38 1
    25   16   17 2
    26   17   18 1
    27   17   31 1
    28   18   19 1
    29   18   39 1
    30   18   40 1
    31   19   20 1
    32   20   24 1
    33   20   21 2
    34   21   22 1
    35   22   23 2
    36   23   24 1
    37   23   25 1
    38   25   30 ar
    39   25   26 ar
    40   26   27 ar
    41   26   41 1
    42   27   28 ar
    43   27   42 1
    44   28   29 ar
    45   29   30 ar
    46   29   43 1
    47   30   44 1
    48   31   45 1
@<TRIPOS>MOLECULE
ZINC20158055
   72    77     0     0     0
SMALL
USER_CHARGES
(1S,6S)-6-[[6-[N-[[2-(1-adamantyl)acetyl]amino]-C-methyl-carbonimidoyl]-1,3-benzodioxol-5-yl]carbamoyl]cyclohex-3-ene-1-carboxylic acid
@<TRIPOS>ATOM
      1 C1         -3.4916   -1.1777    0.4166 C.3       1 <0>        -0.1604
      2 C2         -2.3566   -0.2067    0.2167 C.2       1 <0>         0.1643
      3 N1         -2.5895    1.0707    0.2046 N.2       1 <0>        -0.2509
      4 N2         -3.8960    1.5462    0.3773 N.am      1 <0>        -0.5924
      5 C3         -4.1377    2.8720    0.3648 C.2       1 <0>         0.5253
      6 O1         -3.2240    3.6538    0.2039 O.2       1 <0>        -0.4845
      7 C4         -5.5430    3.3835    0.5506 C.3       1 <0>        -0.1267
      8 C5         -5.5407    4.9125    0.4952 C.3       1 <0>        -0.0318
      9 C6         -5.0058    5.3729   -0.8622 C.3       1 <0>        -0.1171
     10 C7         -5.0035    6.9019   -0.9176 C.3       1 <0>        -0.0834
     11 C8         -6.4302    7.4212   -0.7289 C.3       1 <0>        -0.1086
     12 C9         -6.9652    6.9608    0.6285 C.3       1 <0>        -0.0828
     13 C10        -6.9675    5.4318    0.6839 C.3       1 <0>        -0.1013
     14 C11        -6.0712    7.5101    1.7420 C.3       1 <0>        -0.1083
     15 C12        -4.6444    6.9908    1.5534 C.3       1 <0>        -0.0815
     16 C13        -4.1094    7.4512    0.1959 C.3       1 <0>        -0.1076
     17 C14        -4.6467    5.4618    1.6087 C.3       1 <0>        -0.1149
     18 C15        -0.9833   -0.7066    0.0352 C.ar      1 <0>        -0.1080
     19 C16        -0.7439   -2.0800   -0.0641 C.ar      1 <0>        -0.0470
     20 C17         0.5453   -2.5455   -0.2348 C.ar      1 <0>        -0.0149
     21 C18         1.6105   -1.6465   -0.3084 C.ar      1 <0>         0.0848
     22 C19         1.3787   -0.2832   -0.2164 C.ar      1 <0>        -0.1341
     23 C20         0.0897    0.1938   -0.0393 C.ar      1 <0>         0.2458
     24 N3         -0.1412    1.5688    0.0590 N.am      1 <0>        -0.6747
     25 C21         0.7222    2.4389   -0.5013 C.2       1 <0>         0.5294
     26 O2          1.6428    2.0298   -1.1768 O.2       1 <0>        -0.4820
     27 C22         0.5437    3.9201   -0.2885 C.3       1 <0>        -0.0729
     28 H1         -0.4427    4.2052   -0.6831 H         1 <0>         0.1020
     29 C23         0.6312    4.2394    1.2055 C.3       1 <0>        -0.0774
     30 C24         0.7265    5.7239    1.4111 C.2       1 <0>        -0.1629
     31 C25         1.0413    6.5675    0.4811 C.2       1 <0>        -0.1391
     32 C26         1.3504    6.1806   -0.9355 C.3       1 <0>        -0.0721
     33 C27         1.6561    4.6836   -1.0183 C.3       1 <0>        -0.1122
     34 H2          2.6357    4.4661   -0.5677 H         1 <0>         0.0724
     35 C28         1.7014    4.2549   -2.4624 C.2       1 <0>         0.4781
     36 O3          0.9251    3.4239   -2.8705 O.co2     1 <0>        -0.6264
     37 O4          2.6042    4.7963   -3.2952 O.co2     1 <0>        -0.7814
     38 O5          2.7657   -2.3540   -0.4767 O.3       1 <0>        -0.3064
     39 C29         2.3557   -3.6621   -0.9162 C.3       1 <0>         0.2088
     40 O6          1.0374   -3.8141   -0.3578 O.3       1 <0>        -0.3071
     41 H3         -3.1020   -2.2062    0.3970 H         1 <0>         0.0912
     42 H4         -4.2297   -1.0498   -0.3889 H         1 <0>         0.0821
     43 H5         -3.9715   -0.9859    1.3876 H         1 <0>         0.0826
     44 H6         -4.7245    0.8374    0.5231 H         1 <0>         0.4011
     45 H7         -6.1858    2.9885   -0.2499 H         1 <0>         0.0946
     46 H8         -5.9277    3.0525    1.5266 H         1 <0>         0.0944
     47 H9         -3.9800    4.9996   -0.9979 H         1 <0>         0.0966
     48 H10        -5.6486    4.9780   -1.6627 H         1 <0>         0.0508
     49 H11        -4.6190    7.2329   -1.8936 H         1 <0>         0.0679
     50 H12        -6.4285    8.5205   -0.7686 H         1 <0>         0.0582
     51 H13        -7.0730    7.0264   -1.5294 H         1 <0>         0.0579
     52 H14        -7.9910    7.3342    0.7640 H         1 <0>         0.0649
     53 H15        -7.6103    5.0368   -0.1166 H         1 <0>         0.0602
     54 H16        -7.3521    5.1008    1.6599 H         1 <0>         0.0597
     55 H17        -6.0696    8.6094    1.7022 H         1 <0>         0.0580
     56 H18        -6.4559    7.1791    2.7180 H         1 <0>         0.0571
     57 H19        -4.0016    7.3857    2.3540 H         1 <0>         0.0657
     58 H20        -3.0836    7.0778    0.0602 H         1 <0>         0.0699
     59 H21        -4.1077    8.5505    0.1561 H         1 <0>         0.0553
     60 H22        -5.0314    5.1308    2.5846 H         1 <0>         0.0496
     61 H23        -3.6209    5.0885    1.4731 H         1 <0>         0.0955
     62 H24        -1.5668   -2.7772   -0.0077 H         1 <0>         0.1421
     63 H25         2.2053    0.4091   -0.2787 H         1 <0>         0.1627
     64 H26        -1.0276    1.9408    0.5937 H         1 <0>         0.4432
     65 H27        -0.2677    3.8614    1.7145 H         1 <0>         0.0684
     66 H28         1.5236    3.7579    1.6317 H         1 <0>         0.0682
     67 H29         0.5087    6.0823    2.4280 H         1 <0>         0.0994
     68 H30         1.0949    7.6424    0.7087 H         1 <0>         0.1000
     69 H31         0.4845    6.4076   -1.5748 H         1 <0>         0.0698
     70 H32         2.2249    6.7472   -1.2879 H         1 <0>         0.0782
     71 H33         2.3482   -3.6938   -2.0157 H         1 <0>         0.0839
     72 H34         3.0597   -4.4152   -0.5325 H         1 <0>         0.1306
@<TRIPOS>BOND
     1    1    2 1
     2    1   41 1
     3    1   42 1
     4    1   43 1
     5    2    3 2
     6    2   18 1
     7    3    4 1
     8    4    5 am
     9    4   44 1
    10    5    6 2
    11    5    7 1
    12    7    8 1
    13    7   45 1
    14    7   46 1
    15    8   13 1
    16    8   17 1
    17    8    9 1
    18    9   10 1
    19    9   47 1
    20    9   48 1
    21   10   16 1
    22   10   11 1
    23   10   49 1
    24   11   12 1
    25   11   50 1
    26   11   51 1
    27   12   13 1
    28   12   14 1
    29   12   52 1
    30   13   53 1
    31   13   54 1
    32   14   15 1
    33   14   55 1
    34   14   56 1
    35   15   16 1
    36   15   17 1
    37   15   57 1
    38   16   58 1
    39   16   59 1
    40   17   60 1
    41   17   61 1
    42   18   23 ar
    43   18   19 ar
    44   19   20 ar
    45   19   62 1
    46   20   40 1
    47   20   21 ar
    48   21   22 ar
    49   21   38 1
    50   22   23 ar
    51   22   63 1
    52   23   24 1
    53   24   25 am
    54   24   64 1
    55   25   26 2
    56   25   27 1
    57   27   28 1
    58   27   33 1
    59   27   29 1
    60   29   30 1
    61   29   65 1
    62   29   66 1
    63   30   31 2
    64   30   67 1
    65   31   32 1
    66   31   68 1
    67   32   33 1
    68   32   69 1
    69   32   70 1
    70   33   34 1
    71   33   35 1
    72   35   36 2
    73   35   37 1
    74   38   39 1
    75   39   40 1
    76   39   71 1
    77   39   72 1
@<TRIPOS>MOLECULE
ZINC35701776
   66    69     0     0     0
SMALL
USER_CHARGES

@<TRIPOS>ATOM
      1 C1          1.0437    0.8665    0.3179 C.3       1 <0>        -0.0910
      2 C2          0.6860   -0.5859    0.5009 C.2       1 <0>         0.3107
      3 C3         -0.6380   -0.9779    0.4524 C.2       1 <0>        -0.3911
      4 C4         -0.9460   -2.4465    0.6411 C.3       1 <0>         0.2731
      5 H1         -1.6186   -2.5415    1.4936 H         1 <0>         0.0722
      6 N1          0.2086   -3.3567    0.8653 N.pl3     1 <0>        -0.5043
      7 C5          0.1643   -4.7229    1.0597 C.2       1 <0>         0.2345
      8 C6          1.3369   -5.3679    1.2464 C.2       1 <0>        -0.3078
      9 S1          2.5122   -4.0325    1.1464 S.3       1 <0>         0.1260
     10 C7          1.4420   -2.7677    0.8780 C.2       1 <0>         0.3418
     11 N2          1.6424   -1.4779    0.7015 N.2       1 <0>        -0.5934
     12 C8         -1.1133   -5.4500    1.0639 C.2       1 <0>        -0.4699
     13 C9         -1.1428   -6.7578    1.3845 C.2       1 <0>         0.5010
     14 O1          0.0151   -7.4311    1.5916 O.3       1 <0>        -0.7071
     15 N3         -2.3561   -7.4145    1.5025 N.pl3     1 <0>        -0.7503
     16 C10        -2.3882   -8.8370    1.8512 C.3       1 <0>         0.1460
     17 C11        -3.8406   -9.3135    1.9163 C.3       1 <0>         0.0688
     18 H2         -4.3317   -9.1608    0.9553 H         1 <0>         0.0706
     19 C12        -3.8986  -10.8088    2.3183 C.3       1 <0>        -0.1481
     20 C13        -5.3203  -10.8927    2.9377 C.3       1 <0>        -0.1550
     21 C14        -5.4739   -9.5041    3.5947 C.3       1 <0>         0.0496
     22 O2         -4.5481   -8.6163    2.9540 O.3       1 <0>        -0.3720
     23 C15        -1.6837   -2.9268   -0.5821 C.ar      1 <0>        -0.0661
     24 C16        -3.0384   -3.1889   -0.5132 C.ar      1 <0>        -0.0663
     25 C17        -3.7174   -3.6304   -1.6389 C.ar      1 <0>         0.0845
     26 C18        -3.0363   -3.8088   -2.8341 C.ar      1 <0>        -0.1690
     27 C19        -1.6820   -3.5467   -2.9030 C.ar      1 <0>        -0.1783
     28 C20        -1.0039   -3.1001   -1.7783 C.ar      1 <0>         0.1197
     29 O3          0.3284   -2.8367   -1.8475 O.3       1 <0>        -0.3012
     30 C21         0.9431   -2.9352   -3.1338 C.3       1 <0>         0.0320
     31 O4         -5.0507   -3.8888   -1.5709 O.3       1 <0>        -0.3171
     32 C22        -5.6858   -4.3405   -2.7687 C.3       1 <0>         0.0310
     33 C23        -1.6607   -0.0464    0.2361 C.2       1 <0>         0.5349
     34 O5         -1.3964    1.1406    0.1536 O.2       1 <0>        -0.5543
     35 O6         -2.9408   -0.4633    0.1187 O.3       1 <0>        -0.3492
     36 C24        -3.9180    0.5264   -0.2092 C.3       1 <0>         0.0978
     37 C25        -5.2914   -0.0931   -0.1754 C.2       1 <0>        -0.1453
     38 C26        -6.2631    0.5029    0.4701 C.2       1 <0>        -0.1825
     39 H3          2.1254    0.9852    0.3819 H         1 <0>         0.0622
     40 H4          0.6982    1.2056   -0.6587 H         1 <0>         0.0818
     41 H5          0.5664    1.4594    1.0982 H         1 <0>         0.0862
     42 H6          1.5154   -6.4199    1.4135 H         1 <0>         0.2348
     43 H7         -2.0282   -4.9355    0.8100 H         1 <0>         0.0906
     44 H8         -3.1848   -6.9327    1.3543 H         1 <0>         0.3885
     45 H9         -1.8518   -9.4089    1.0941 H         1 <0>         0.0613
     46 H10        -1.9137   -8.9841    2.8215 H         1 <0>         0.0561
     47 H11        -3.8122  -11.4542    1.4442 H         1 <0>         0.0831
     48 H12        -3.1335  -11.0469    3.0573 H         1 <0>         0.0824
     49 H13        -6.0728  -11.0407    2.1632 H         1 <0>         0.0742
     50 H14        -5.3714  -11.6836    3.6860 H         1 <0>         0.0799
     51 H15        -6.4914   -9.1391    3.4543 H         1 <0>         0.0642
     52 H16        -5.2474   -9.5713    4.6587 H         1 <0>         0.0664
     53 H17        -3.5686   -3.0503    0.4175 H         1 <0>         0.1329
     54 H18        -3.5650   -4.1529   -3.7107 H         1 <0>         0.1223
     55 H19        -1.1517   -3.6863   -3.8334 H         1 <0>         0.1235
     56 H20         0.5198   -2.1813   -3.7975 H         1 <0>         0.0473
     57 H21         2.0165   -2.7724   -3.0369 H         1 <0>         0.0943
     58 H22         0.7620   -3.9270   -3.5481 H         1 <0>         0.0501
     59 H23        -5.5731   -3.5853   -3.5467 H         1 <0>         0.0489
     60 H24        -5.2233   -5.2715   -3.0964 H         1 <0>         0.0507
     61 H25        -6.7455   -4.5090   -2.5767 H         1 <0>         0.0938
     62 H26        -3.8684    1.3398    0.5146 H         1 <0>         0.0652
     63 H27        -3.7197    0.9160   -1.2077 H         1 <0>         0.0651
     64 H28        -5.4745   -1.0284   -0.6833 H         1 <0>         0.1200
     65 H29        -6.0799    1.4382    0.9781 H         1 <0>         0.0961
     66 H30        -7.2473    0.0589    0.4944 H         1 <0>         0.1032
@<TRIPOS>BOND
     1    1    2 1
     2    1   39 1
     3    1   40 1
     4    1   41 1
     5    2   11 1
     6    2    3 2
     7    3    4 1
     8    3   33 1
     9    4    5 1
    10    4    6 1
    11    4   23 1
    12    6   10 1
    13    6    7 1
    14    7    8 2
    15    7   12 1
    16    8    9 1
    17    8   42 1
    18    9   10 1
    19   10   11 2
    20   12   13 2
    21   12   43 1
    22   13   14 1
    23   13   15 1
    24   15   16 1
    25   15   44 1
    26   16   17 1
    27   16   45 1
    28   16   46 1
    29   17   18 1
    30   17   22 1
    31   17   19 1
    32   19   20 1
    33   19   47 1
    34   19   48 1
    35   20   21 1
    36   20   49 1
    37   20   50 1
    38   21   22 1
    39   21   51 1
    40   21   52 1
    41   23   28 ar
    42   23   24 ar
    43   24   25 ar
    44   24   53 1
    45   25   26 ar
    46   25   31 1
    47   26   27 ar
    48   26   54 1
    49   27   28 ar
    50   27   55 1
    51   28   29 1
    52   29   30 1
    53   30   56 1
    54   30   57 1
    55   30   58 1
    56   31   32 1
    57   32   59 1
    58   32   60 1
    59   32   61 1
    60   33   34 2
    61   33   35 1
    62   35   36 1
    63   36   37 1
    64   36   62 1
    65   36   63 1
    66   37   38 2
    67   37   64 1
    68   38   65 1
    69   38   66 1
@<TRIPOS>MOLECULE
ZINC36064620
   70    73     0     0     0
SMALL
USER_CHARGES

@<TRIPOS>ATOM
      1 C1          0.2180    1.5659   -0.7880 C.3       1 <0>        -0.1405
      2 C2          0.0574    0.0472   -0.6954 C.3       1 <0>        -0.0733
      3 C3         -1.3561   -0.2848   -0.2918 C.2       1 <0>         0.2525
      4 C4         -2.2928   -0.5894   -1.2607 C.2       1 <0>        -0.3691
      5 C5         -3.6975   -0.9162   -0.8055 C.3       1 <0>         0.2820
      6 H1         -3.9441   -1.9142   -1.1681 H         1 <0>         0.0830
      7 N1         -3.9595   -0.8832    0.6581 N.pl3     1 <0>        -0.5220
      8 C6         -5.1566   -1.1452    1.2942 C.2       1 <0>         0.2340
      9 C7         -5.1817   -1.0601    2.6425 C.2       1 <0>        -0.3062
     10 S1         -3.4995   -0.6059    3.0147 S.3       1 <0>         0.1188
     11 C8         -2.8940   -0.5578    1.4501 C.2       1 <0>         0.3247
     12 N2         -1.6903   -0.2879    0.9883 N.2       1 <0>        -0.5915
     13 C9         -6.3611   -1.5036    0.5316 C.2       1 <0>        -0.4640
     14 C10        -7.4833   -1.8718    1.1791 C.2       1 <0>         0.5014
     15 O1         -7.5374   -1.8070    2.5318 O.3       1 <0>        -0.7019
     16 N3         -8.5816   -2.3166    0.4627 N.pl3     1 <0>        -0.7576
     17 C11        -9.8388   -2.6087    1.1558 C.3       1 <0>         0.1473
     18 C12       -10.8448   -3.1936    0.1624 C.3       1 <0>         0.0462
     19 N4        -12.1309   -3.4105    0.8384 N.3       1 <0>        -0.5324
     20 C13       -12.0312   -4.4962    1.8246 C.3       1 <0>         0.0132
     21 C14       -13.3731   -4.6482    2.5457 C.3       1 <0>         0.0640
     22 O2        -14.4025   -4.8853    1.5815 O.3       1 <0>        -0.3887
     23 C15       -14.5278   -3.8471    0.6060 C.3       1 <0>         0.0645
     24 C16       -13.1975   -3.6870   -0.1348 C.3       1 <0>         0.0179
     25 C17        -4.6379    0.0584   -1.4665 C.ar      1 <0>        -0.0694
     26 C18        -4.9680    1.2394   -0.8303 C.ar      1 <0>        -0.0747
     27 C19        -5.8330    2.1365   -1.4388 C.ar      1 <0>         0.0982
     28 C20        -6.3668    1.8479   -2.6862 C.ar      1 <0>        -0.1714
     29 C21        -6.0368    0.6672   -3.3222 C.ar      1 <0>        -0.1702
     30 C22        -5.1674   -0.2277   -2.7159 C.ar      1 <0>         0.1026
     31 O3         -4.8381   -1.3877   -3.3445 O.3       1 <0>        -0.3079
     32 C23        -5.3422   -1.5737   -4.6686 C.3       1 <0>         0.0323
     33 O4         -6.1582    3.2988   -0.8124 O.3       1 <0>        -0.3153
     34 C24        -7.0546    4.1760   -1.4973 C.3       1 <0>         0.0307
     35 C25        -1.9529   -0.5950   -2.6190 C.2       1 <0>         0.5703
     36 O5         -1.7174   -1.6490   -3.1839 O.2       1 <0>        -0.5096
     37 O6         -1.8860    0.5683   -3.3036 O.3       1 <0>        -0.3514
     38 C26        -1.5333    0.4881   -4.6861 C.3       1 <0>         0.0343
     39 H2          1.2403    1.8061   -1.0799 H         1 <0>         0.0563
     40 H3         -0.4744    1.9598   -1.5320 H         1 <0>         0.0606
     41 H4          0.0024    2.0139    0.1820 H         1 <0>         0.0614
     42 H5          0.2730   -0.4007   -1.6654 H         1 <0>         0.0677
     43 H6          0.7498   -0.3467    0.0487 H         1 <0>         0.0840
     44 H7         -6.0075   -1.2241    3.3191 H         1 <0>         0.2356
     45 H8         -6.3462   -1.4717   -0.5478 H         1 <0>         0.0839
     46 H9         -8.5186   -2.4347   -0.4980 H         1 <0>         0.3823
     47 H10        -9.6552   -3.3287    1.9533 H         1 <0>         0.0541
     48 H11       -10.2410   -1.6895    1.5817 H         1 <0>         0.0553
     49 H12       -10.9826   -2.4992   -0.6664 H         1 <0>         0.0752
     50 H13       -10.4695   -4.1436   -0.2180 H         1 <0>         0.0370
     51 H14       -11.7836   -5.4281    1.3162 H         1 <0>         0.0421
     52 H15       -11.2531   -4.2588    2.5500 H         1 <0>         0.0949
     53 H16       -13.3215   -5.4891    3.2372 H         1 <0>         0.0980
     54 H17       -13.5950   -3.7350    3.0979 H         1 <0>         0.0613
     55 H18       -15.3113   -4.1086   -0.1053 H         1 <0>         0.0957
     56 H19       -14.7833   -2.9106    1.1018 H         1 <0>         0.0599
     57 H20       -13.2708   -2.8588   -0.8396 H         1 <0>         0.0850
     58 H21       -12.9686   -4.6059   -0.6745 H         1 <0>         0.0409
     59 H22        -4.5527    1.4640    0.1410 H         1 <0>         0.1248
     60 H23        -7.0407    2.5463   -3.1599 H         1 <0>         0.1257
     61 H24        -6.4530    0.4422   -4.2931 H         1 <0>         0.1265
     62 H25        -6.4296   -1.4997   -4.6572 H         1 <0>         0.0515
     63 H26        -4.9327   -0.8055   -5.3246 H         1 <0>         0.0479
     64 H27        -5.0488   -2.5578   -5.0342 H         1 <0>         0.0959
     65 H28        -6.6172    4.4700   -2.4514 H         1 <0>         0.0500
     66 H29        -8.0004    3.6638   -1.6736 H         1 <0>         0.0519
     67 H30        -7.2299    5.0635   -0.8892 H         1 <0>         0.0960
     68 H31        -1.5158    1.4899   -5.1152 H         1 <0>         0.0916
     69 H32        -0.5474    0.0336   -4.7838 H         1 <0>         0.0541
     70 H33        -2.2678   -0.1204   -5.2137 H         1 <0>         0.0517
@<TRIPOS>BOND
     1    1    2 1
     2    1   39 1
     3    1   40 1
     4    1   41 1
     5    2    3 1
     6    2   42 1
     7    2   43 1
     8    3   12 1
     9    3    4 2
    10    4    5 1
    11    4   35 1
    12    5    6 1
    13    5    7 1
    14    5   25 1
    15    7   11 1
    16    7    8 1
    17    8    9 2
    18    8   13 1
    19    9   10 1
    20    9   44 1
    21   10   11 1
    22   11   12 2
    23   13   14 2
    24   13   45 1
    25   14   15 1
    26   14   16 1
    27   16   17 1
    28   16   46 1
    29   17   18 1
    30   17   47 1
    31   17   48 1
    32   18   19 1
    33   18   49 1
    34   18   50 1
    35   19   24 1
    36   19   20 1
    37   20   21 1
    38   20   51 1
    39   20   52 1
    40   21   22 1
    41   21   53 1
    42   21   54 1
    43   22   23 1
    44   23   24 1
    45   23   55 1
    46   23   56 1
    47   24   57 1
    48   24   58 1
    49   25   30 ar
    50   25   26 ar
    51   26   27 ar
    52   26   59 1
    53   27   28 ar
    54   27   33 1
    55   28   29 ar
    56   28   60 1
    57   29   30 ar
    58   29   61 1
    59   30   31 1
    60   31   32 1
    61   32   62 1
    62   32   63 1
    63   32   64 1
    64   33   34 1
    65   34   65 1
    66   34   66 1
    67   34   67 1
    68   35   36 2
    69   35   37 1
    70   37   38 1
    71   38   68 1
    72   38   69 1
    73   38   70 1
@<TRIPOS>MOLECULE
ZINC22494411
   56    60     0     0     0
SMALL
USER_CHARGES

@<TRIPOS>ATOM
      1 C1         -0.0015    1.3741    0.0629 C.2       1 <0>        -0.2148
      2 C2          1.3407    1.8022    0.0448 C.2       1 <0>        -0.1571
      3 C3          2.1095    0.6804    0.0315 C.2       1 <0>         0.0292
      4 O1          1.2905   -0.3890    0.0408 O.3       1 <0>        -0.1728
      5 C4          0.0138    0.0266    0.0597 C.2       1 <0>        -0.0272
      6 C5          3.5857    0.6416    0.0101 C.ar      1 <0>         0.0827
      7 C6          4.2569   -0.5890   -0.0078 C.ar      1 <0>        -0.0593
      8 C7          5.6389   -0.5729   -0.0274 C.ar      1 <0>        -0.1791
      9 C8          6.2808    0.6673   -0.0282 C.ar      1 <0>         0.3497
     10 N1          5.5656    1.7825   -0.0104 N.ar      1 <0>        -0.2944
     11 N2          4.2821    1.7722    0.0023 N.ar      1 <0>        -0.1761
     12 N3          7.6696    0.7319   -0.0472 N.pl3     1 <0>        -0.5939
     13 C9          8.3589    2.0294   -0.0396 C.3       1 <0>         0.1208
     14 C10         9.3338    2.0766   -1.2203 C.3       1 <0>        -0.1170
     15 C11        10.2695    0.8674   -1.1528 C.3       1 <0>        -0.1040
     16 C12         9.4494   -0.4206   -1.2549 C.3       1 <0>        -0.1304
     17 C13         8.4758   -0.4962   -0.0689 C.3       1 <0>         0.1205
     18 C14        11.2522    0.9287   -2.2937 C.2       1 <0>         0.5141
     19 O2         11.2085    1.8486   -3.0830 O.2       1 <0>        -0.5059
     20 N4         12.1795   -0.0388   -2.4371 N.am      1 <0>        -0.6745
     21 C15        13.1615    0.0745   -3.4274 C.ar      1 <0>         0.1785
     22 C16        13.6212   -1.0593   -4.0844 C.ar      1 <0>        -0.1688
     23 C17        14.5906   -0.9440   -5.0615 C.ar      1 <0>        -0.0028
     24 C18        15.1033    0.2986   -5.3857 C.ar      1 <0>        -0.6360
     25 C19        14.6479    1.4295   -4.7330 C.ar      1 <0>        -0.0022
     26 C20        13.6743    1.3217   -3.7594 C.ar      1 <0>        -0.1434
     27 S1         16.3398    0.4413   -6.6328 S.o2      1 <0>         2.6371
     28 O3         17.0467    1.6452   -6.3680 O.2       1 <0>        -1.0104
     29 O4         16.9874   -0.8213   -6.7089 O.2       1 <0>        -1.0113
     30 N5         15.5571    0.6596   -8.0757 N.2       1 <0>        -1.0310
     31 C21        16.2871    0.8037   -9.2452 C.2       1 <0>         0.4016
     32 N6         17.5938    0.7880   -9.4010 N.2       1 <0>        -0.6661
     33 C22        18.1401    0.9403  -10.5945 C.2       1 <0>         0.1002
     34 C23        17.2969    1.1121  -11.6406 C.2       1 <0>        -0.3462
     35 S2         15.7173    1.0340  -10.8120 S.3       1 <0>         0.0101
     36 H1         -0.8769    2.0063    0.0806 H         1 <0>         0.1534
     37 H2          1.6912    2.8238    0.0416 H         1 <0>         0.1582
     38 H3         -0.8564   -0.6129    0.0712 H         1 <0>         0.2079
     39 H4          3.7110   -1.5209   -0.0060 H         1 <0>         0.1527
     40 H5          6.2055   -1.4922   -0.0414 H         1 <0>         0.1529
     41 H6          7.6279    2.8320   -0.1370 H         1 <0>         0.1046
     42 H7          8.9096    2.1452    0.8939 H         1 <0>         0.0701
     43 H8          8.7743    2.0519   -2.1554 H         1 <0>         0.0782
     44 H9          9.9206    2.9939   -1.1711 H         1 <0>         0.0891
     45 H10        10.8107    0.8794   -0.2067 H         1 <0>         0.1053
     46 H11         8.8887   -0.4219   -2.1896 H         1 <0>         0.0792
     47 H12        10.1184   -1.2808   -1.2302 H         1 <0>         0.0842
     48 H13         9.0359   -0.5822    0.8623 H         1 <0>         0.0786
     49 H14         7.8220   -1.3605   -0.1856 H         1 <0>         0.0904
     50 H15        12.1662   -0.8136   -1.8537 H         1 <0>         0.4097
     51 H16        13.2214   -2.0301   -3.8314 H         1 <0>         0.1298
     52 H17        14.9488   -1.8255   -5.5725 H         1 <0>         0.1421
     53 H18        15.0506    2.3985   -4.9883 H         1 <0>         0.1414
     54 H19        13.3153    2.2059   -3.2536 H         1 <0>         0.1362
     55 H20        19.2115    0.9289  -10.7298 H         1 <0>         0.1456
     56 H21        17.5188    1.2535  -12.6880 H         1 <0>         0.1705
@<TRIPOS>BOND
     1    1    5 2
     2    1    2 1
     3    1   36 1
     4    2    3 2
     5    2   37 1
     6    3    4 1
     7    3    6 1
     8    4    5 1
     9    5   38 1
    10    6   11 ar
    11    6    7 ar
    12    7    8 ar
    13    7   39 1
    14    8    9 ar
    15    8   40 1
    16    9   10 ar
    17    9   12 1
    18   10   11 ar
    19   12   17 1
    20   12   13 1
    21   13   14 1
    22   13   41 1
    23   13   42 1
    24   14   15 1
    25   14   43 1
    26   14   44 1
    27   15   16 1
    28   15   18 1
    29   15   45 1
    30   16   17 1
    31   16   46 1
    32   16   47 1
    33   17   48 1
    34   17   49 1
    35   18   19 2
    36   18   20 am
    37   20   21 1
    38   20   50 1
    39   21   26 ar
    40   21   22 ar
    41   22   23 ar
    42   22   51 1
    43   23   24 ar
    44   23   52 1
    45   24   25 ar
    46   24   27 1
    47   25   26 ar
    48   25   53 1
    49   26   54 1
    50   27   28 2
    51   27   29 2
    52   27   30 1
    53   30   31 1
    54   31   35 1
    55   31   32 2
    56   32   33 1
    57   33   34 2
    58   33   55 1
    59   34   35 1
    60   34   56 1
@<TRIPOS>MOLECULE
ZINC54201825
   52    55     0     0     0
SMALL
USER_CHARGES

@<TRIPOS>ATOM
      1 C1          1.1150   -0.7665   -0.9040 C.3       1 <0>         0.0254
      2 O1          0.0163   -0.0060   -0.3974 O.3       1 <0>        -0.3177
      3 C2         -1.1709   -0.6510   -0.2653 C.ar      1 <0>         0.1312
      4 C3         -1.2720   -1.9935   -0.6125 C.ar      1 <0>        -0.2036
      5 C4         -2.4733   -2.6525   -0.4806 C.ar      1 <0>        -0.0608
      6 C5         -3.5949   -1.9681    0.0043 C.ar      1 <0>        -0.1034
      7 C6         -3.4872   -0.6158    0.3526 C.ar      1 <0>        -0.0568
      8 C7         -2.2796    0.0318    0.2220 C.ar      1 <0>        -0.1554
      9 C8         -4.8790   -2.6655    0.1467 C.2       1 <0>         0.0021
     10 C9         -4.9425   -4.0111   -0.0197 C.2       1 <0>        -0.2045
     11 C10        -6.1230   -4.9026   -0.1017 C.2       1 <0>         0.5344
     12 O2         -7.2623   -4.4718   -0.0192 O.2       1 <0>        -0.5121
     13 N1         -5.8763   -6.1830   -0.2684 N.2       1 <0>        -0.6673
     14 C11        -4.6460   -6.6632   -0.3598 C.2       1 <0>         0.4574
     15 S1         -3.6250   -5.2055   -0.2097 S.3       1 <0>        -0.0825
     16 N2         -4.2512   -7.9645   -0.5326 N.2       1 <0>        -0.5248
     17 C12        -5.2042   -8.9728   -0.6350 C.2       1 <0>         0.3421
     18 N3         -6.5193   -8.8861   -0.5971 N.2       1 <0>        -0.3477
     19 N4         -7.2845  -10.0229   -0.7190 N.2       1 <0>        -0.2863
     20 C13        -6.6976  -11.1954   -0.8733 C.2       1 <0>        -0.0106
     21 S2         -4.9732  -10.7296   -0.8607 S.3       1 <0>        -0.0255
     22 S3         -7.4218  -12.7917   -1.0518 S.3       1 <0>         0.0950
     23 C14        -9.2064  -12.4749   -0.9770 C.3       1 <0>        -0.1561
     24 C15        -9.9539  -13.7757   -1.1192 C.2       1 <0>         0.5388
     25 O3         -9.3429  -14.8143   -1.2574 O.2       1 <0>        -0.5043
     26 N5        -11.3014  -13.7849   -1.0928 N.am      1 <0>        -0.6653
     27 C16       -11.9940  -15.0028   -1.1070 C.ar      1 <0>         0.1128
     28 C17       -13.2555  -15.0776   -1.6822 C.ar      1 <0>        -0.1054
     29 C18       -13.9374  -16.2783   -1.6963 C.ar      1 <0>        -0.1315
     30 C19       -13.3625  -17.4094   -1.1355 C.ar      1 <0>         0.1094
     31 C20       -12.1024  -17.3352   -0.5603 C.ar      1 <0>        -0.1864
     32 C21       -11.4168  -16.1366   -0.5510 C.ar      1 <0>        -0.0828
     33 O4        -14.0347  -18.5913   -1.1493 O.3       1 <0>        -0.3191
     34 C22       -13.3830  -19.7152   -0.5542 C.3       1 <0>         0.0267
     35 H1          2.0004   -0.1332   -0.9593 H         1 <0>         0.0989
     36 H2          1.3112   -1.6081   -0.2398 H         1 <0>         0.0575
     37 H3          0.8713   -1.1382   -1.8992 H         1 <0>         0.0570
     38 H4         -0.4066   -2.5201   -0.9867 H         1 <0>         0.1316
     39 H5         -2.5509   -3.6952   -0.7510 H         1 <0>         0.1443
     40 H6         -4.3489   -0.0832    0.7271 H         1 <0>         0.1358
     41 H7         -2.1943    1.0734    0.4943 H         1 <0>         0.1325
     42 H8         -5.7730   -2.1080    0.3839 H         1 <0>         0.1495
     43 H9         -9.4542  -12.0162   -0.0198 H         1 <0>         0.1286
     44 H10        -9.4902  -11.8024   -1.7865 H         1 <0>         0.1275
     45 H11       -11.7917  -12.9484   -1.0640 H         1 <0>         0.4156
     46 H12       -13.7035  -14.1969   -2.1182 H         1 <0>         0.1346
     47 H13       -14.9186  -16.3367   -2.1437 H         1 <0>         0.1349
     48 H14       -11.6557  -18.2161   -0.1232 H         1 <0>         0.1317
     49 H15       -10.4337  -16.0800   -0.1074 H         1 <0>         0.1439
     50 H16       -14.0263  -20.5917   -0.6327 H         1 <0>         0.0991
     51 H17       -12.4433  -19.9067   -1.0723 H         1 <0>         0.0560
     52 H18       -13.1824  -19.5047    0.4963 H         1 <0>         0.0555
@<TRIPOS>BOND
     1    1    2 1
     2    1   35 1
     3    1   36 1
     4    1   37 1
     5    2    3 1
     6    3    8 ar
     7    3    4 ar
     8    4    5 ar
     9    4   38 1
    10    5    6 ar
    11    5   39 1
    12    6    7 ar
    13    6    9 1
    14    7    8 ar
    15    7   40 1
    16    8   41 1
    17    9   10 2
    18    9   42 1
    19   10   15 1
    20   10   11 1
    21   11   12 2
    22   11   13 1
    23   13   14 2
    24   14   15 1
    25   14   16 1
    26   16   17 1
    27   17   21 1
    28   17   18 2
    29   18   19 1
    30   19   20 2
    31   20   21 1
    32   20   22 1
    33   22   23 1
    34   23   24 1
    35   23   43 1
    36   23   44 1
    37   24   25 2
    38   24   26 am
    39   26   27 1
    40   26   45 1
    41   27   32 ar
    42   27   28 ar
    43   28   29 ar
    44   28   46 1
    45   29   30 ar
    46   29   47 1
    47   30   31 ar
    48   30   33 1
    49   31   32 ar
    50   31   48 1
    51   32   49 1
    52   33   34 1
    53   34   50 1
    54   34   51 1
    55   34   52 1
@<TRIPOS>MOLECULE
ZINC13204702
   56    58     0     0     0
SMALL
USER_CHARGES
2-[3-[2-(4-ethoxycarbonyl-1-piperidyl)-2-oxo-ethyl]sulfanyl-5-(m-tolyl)-1,2,4-triazol-4-yl]acetic acid
@<TRIPOS>ATOM
      1 C1          5.6440   16.6500    1.9300 C.3       1 <0>        -0.1529
      2 C2          4.1405   16.6258    2.2125 C.3       1 <0>         0.0607
      3 O1          3.4800   15.7673    1.2456 O.3       1 <0>        -0.3569
      4 C3          2.1486   15.6370    1.3556 C.2       1 <0>         0.4660
      5 O2          1.5547   16.2210    2.2309 O.2       1 <0>        -0.5044
      6 C4          1.3946   14.7624    0.3873 C.3       1 <0>        -0.0784
      7 C5         -0.0964   14.7882    0.7316 C.3       1 <0>        -0.1206
      8 C6         -0.8639   13.9259   -0.2755 C.3       1 <0>         0.1147
      9 N1         -0.2722   12.5812   -0.2943 N.am      1 <0>        -0.6123
     10 C7          1.1734   12.4486   -0.5210 C.3       1 <0>         0.1053
     11 C8          1.9172   13.3272    0.4832 C.3       1 <0>        -0.1293
     12 C9         -1.0399   11.4903   -0.1018 C.2       1 <0>         0.5395
     13 O3         -2.2312   11.6133    0.0894 O.2       1 <0>        -0.5171
     14 C10        -0.4181   10.1178   -0.1240 C.3       1 <0>        -0.1509
     15 S1         -1.6981    8.8708    0.1632 S.3       1 <0>         0.0863
     16 C11        -0.7212    7.4063    0.0872 C.2       1 <0>         0.1507
     17 N2          0.5744    7.3436   -0.1254 N.2       1 <0>        -0.3039
     18 N3          0.9639    6.1189   -0.1180 N.2       1 <0>        -0.2784
     19 C12        -0.0584    5.3249    0.0997 C.2       1 <0>         0.2263
     20 N4         -1.1700    6.1247    0.2323 N.pl3     1 <0>        -0.4149
     21 C13        -2.5475    5.6919    0.4800 C.3       1 <0>         0.0414
     22 C14        -2.8040    5.6572    1.9646 C.2       1 <0>         0.4554
     23 O4         -1.9261    5.9627    2.7366 O.co2     1 <0>        -0.6069
     24 C15        -0.0231    3.8491    0.1806 C.ar      1 <0>        -0.0052
     25 C16        -1.0634    3.1560    0.8021 C.ar      1 <0>        -0.1078
     26 C17        -1.0271    1.7788    0.8692 C.ar      1 <0>        -0.1116
     27 C18         0.0432    1.0849    0.3326 C.ar      1 <0>        -0.1118
     28 C19         1.0775    1.7656   -0.2842 C.ar      1 <0>        -0.0951
     29 C20         1.0505    3.1429   -0.3636 C.ar      1 <0>        -0.0797
     30 C21         2.2360    1.0013   -0.8713 C.3       1 <0>        -0.1093
     31 H1          6.0446   15.6393    2.0081 H         1 <0>         0.0680
     32 H2          5.8186   17.0334    0.9247 H         1 <0>         0.0666
     33 H3          6.1397   17.2945    2.6559 H         1 <0>         0.0795
     34 H4          3.7398   17.6365    2.1345 H         1 <0>         0.0692
     35 H5          3.9658   16.2424    3.2178 H         1 <0>         0.0702
     36 H6          1.5396   15.1346   -0.6268 H         1 <0>         0.1128
     37 H7         -0.4626   15.8138    0.6859 H         1 <0>         0.0869
     38 H8         -0.2447   14.3929    1.7365 H         1 <0>         0.0799
     39 H9         -0.7913   14.3710   -1.2678 H         1 <0>         0.0733
     40 H10        -1.9104   13.8604    0.0223 H         1 <0>         0.1026
     41 H11         1.4708   11.4088   -0.3853 H         1 <0>         0.0990
     42 H12         1.4155   12.7708   -1.5338 H         1 <0>         0.0795
     43 H13         2.9842   13.3129    0.2608 H         1 <0>         0.0943
     44 H14         1.7500   12.9456    1.4905 H         1 <0>         0.0773
     45 H15         0.3382   10.0488    0.6579 H         1 <0>         0.1256
     46 H16         0.0462    9.9449   -1.0949 H         1 <0>         0.1245
     47 H17        -3.2383    6.3907    0.0082 H         1 <0>         0.1043
     48 H18        -2.6962    4.6962    0.0622 H         1 <0>         0.1092
     49 H19        -1.8971    3.6967    1.2252 H         1 <0>         0.1379
     50 H20        -1.8336    1.2411    1.3455 H         1 <0>         0.1287
     51 H21         0.0690    0.0068    0.3917 H         1 <0>         0.1229
     52 H22         1.8582    3.6731   -0.8460 H         1 <0>         0.1328
     53 H23         2.0199    0.7559   -1.9111 H         1 <0>         0.0683
     54 H24         3.1370    1.6128   -0.8220 H         1 <0>         0.0666
     55 H25         2.3892    0.0824   -0.3054 H         1 <0>         0.0650
     56 O5         -4.0076    5.2870    2.4293 O.co2     1 <0>        -0.7441
@<TRIPOS>BOND
     1    1    2 1
     2    1   31 1
     3    1   32 1
     4    1   33 1
     5    2    3 1
     6    2   34 1
     7    2   35 1
     8    3    4 1
     9    4    5 2
    10    4    6 1
    11    6   11 1
    12    6    7 1
    13    6   36 1
    14    7    8 1
    15    7   37 1
    16    7   38 1
    17    8    9 1
    18    8   39 1
    19    8   40 1
    20    9   10 1
    21    9   12 am
    22   10   11 1
    23   10   41 1
    24   10   42 1
    25   11   43 1
    26   11   44 1
    27   12   13 2
    28   12   14 1
    29   14   15 1
    30   14   45 1
    31   14   46 1
    32   15   16 1
    33   16   20 1
    34   16   17 2
    35   17   18 1
    36   18   19 2
    37   19   20 1
    38   19   24 1
    39   20   21 1
    40   21   22 1
    41   21   47 1
    42   21   48 1
    43   22   23 2
    44   22   56 1
    45   24   29 ar
    46   24   25 ar
    47   25   26 ar
    48   25   49 1
    49   26   27 ar
    50   26   50 1
    51   27   28 ar
    52   27   51 1
    53   28   29 ar
    54   28   30 1
    55   29   52 1
    56   30   53 1
    57   30   54 1
    58   30   55 1
@<TRIPOS>MOLECULE
ZINC20358140
   62    66     0     0     0
SMALL
USER_CHARGES
ethyl (2S)-2-(dimethyl-morpholino-BLAHyl)sulfanyl-3-oxo-butanoate
@<TRIPOS>ATOM
      1 C1         -4.2226  -10.5432   -1.4368 C.3       1 <0>        -0.1493
      2 C2         -4.4326   -9.1098   -0.9448 C.3       1 <0>         0.0565
      3 O1         -3.1447   -8.4574   -0.7905 O.3       1 <0>        -0.3463
      4 C3         -3.1534   -7.1851   -0.3628 C.2       1 <0>         0.5106
      5 O2         -4.2025   -6.6348   -0.1251 O.3       1 <0>        -0.5749
      6 C4         -1.8547   -6.4430   -0.1790 C.2       1 <0>        -0.5004
      7 C5         -1.2305   -6.8405    1.1338 C.2       1 <0>         0.4154
      8 O3         -0.4009   -7.7174    1.1669 O.2       1 <0>        -0.4814
      9 C6         -1.6416   -6.1438    2.4053 C.3       1 <0>        -0.2133
     10 S1         -2.1725   -4.6611   -0.1809 S.3       1 <0>         0.0125
     11 C7         -0.5195   -4.0555   -0.1068 C.ar      1 <0>         0.2140
     12 C8         -0.2611   -2.6915   -0.0870 C.ar      1 <0>        -0.2289
     13 C9          1.0515   -2.2081   -0.0277 C.ar      1 <0>         0.1913
     14 C10         1.1982   -0.7410   -0.0125 C.ar      1 <0>        -0.1284
     15 C11         2.4006    0.0065    0.0419 C.ar      1 <0>         0.0434
     16 C12         2.3462    1.3649    0.0461 C.ar      1 <0>        -0.1564
     17 C13         1.1070    2.0134    0.0023 C.ar      1 <0>         0.3370
     18 N1         -0.0149    1.3131   -0.0497 N.ar      1 <0>        -0.4747
     19 C14         0.0030   -0.0036   -0.0586 C.ar      1 <0>         0.1236
     20 S2         -1.2729   -1.2376   -0.1216 S.3       1 <0>         0.1442
     21 N2          1.0540    3.4006    0.0113 N.pl3     1 <0>        -0.4785
     22 C15         0.3318    3.8925    1.1936 C.3       1 <0>         0.0167
     23 C16         0.3489    5.4234    1.1949 C.3       1 <0>         0.0648
     24 O4         -0.2213    5.9025   -0.0261 O.3       1 <0>        -0.3822
     25 C17         0.4578    5.4432   -1.1979 C.3       1 <0>         0.0649
     26 C18         0.4418    3.9125   -1.2234 C.3       1 <0>         0.0180
     27 C19         3.5981    2.2029    0.0961 C.3       1 <0>         0.1217
     28 O5          4.7087    1.4068    0.5085 O.3       1 <0>        -0.3688
     29 C20         4.8566    0.2060   -0.2581 C.3       1 <0>         0.1083
     30 C21         3.7069   -0.7392    0.0980 C.3       1 <0>        -0.1046
     31 C22         6.1930   -0.4587    0.0783 C.3       1 <0>        -0.1375
     32 C23         4.8070    0.5382   -1.7508 C.3       1 <0>        -0.1806
     33 N3          2.0275   -3.1441    0.0081 N.ar      1 <0>        -0.5274
     34 C24         1.7473   -4.4230   -0.0122 C.ar      1 <0>         0.3104
     35 N4          0.5155   -4.8953   -0.0680 N.ar      1 <0>        -0.4672
     36 H1         -5.1984  -11.0374   -1.5537 H         1 <0>         0.0690
     37 H2         -3.6164  -11.0970   -0.7048 H         1 <0>         0.0632
     38 H3         -3.7020  -10.5257   -2.4057 H         1 <0>         0.0653
     39 H4         -5.0388   -8.5560   -1.6768 H         1 <0>         0.0585
     40 H5         -4.9532   -9.1272    0.0241 H         1 <0>         0.0545
     41 H6         -1.0822   -6.5670    3.2526 H         1 <0>         0.0599
     42 H7         -2.7198   -6.2868    2.5696 H         1 <0>         0.0737
     43 H8         -1.4228   -5.0690    2.3217 H         1 <0>         0.0732
     44 H9         -0.7082    3.5355    1.1628 H         1 <0>         0.0646
     45 H10         0.8213    3.5176    2.1046 H         1 <0>         0.0891
     46 H11        -0.2384    5.7959    2.0471 H         1 <0>         0.1035
     47 H12         1.3864    5.7784    1.2815 H         1 <0>         0.0628
     48 H13        -0.0506    5.8321   -2.0925 H         1 <0>         0.1033
     49 H14         1.4979    5.8008   -1.1828 H         1 <0>         0.0625
     50 H15         1.0123    3.5523   -2.0922 H         1 <0>         0.0880
     51 H16        -0.5964    3.5558   -1.2931 H         1 <0>         0.0646
     52 H17         3.8028    2.6162   -0.9025 H         1 <0>         0.0695
     53 H18         3.4599    3.0262    0.8124 H         1 <0>         0.1140
     54 H19         3.8606   -1.1337    1.1133 H         1 <0>         0.0979
     55 H20         3.6845   -1.5725   -0.6197 H         1 <0>         0.1116
     56 H21         6.3030   -1.3803   -0.5121 H         1 <0>         0.0751
     57 H22         6.2207   -0.7044    1.1501 H         1 <0>         0.0659
     58 H23         7.0160    0.2307   -0.1613 H         1 <0>         0.0648
     59 H24         4.9209   -0.3862   -2.3361 H         1 <0>         0.0710
     60 H25         5.6233    1.2324   -1.9992 H         1 <0>         0.0668
     61 H26         3.8412    1.0071   -1.9902 H         1 <0>         0.0600
     62 H27         2.5654   -5.1274    0.0179 H         1 <0>         0.1949
@<TRIPOS>BOND
     1    1    2 1
     2    1   36 1
     3    1   37 1
     4    1   38 1
     5    2    3 1
     6    2   39 1
     7    2   40 1
     8    3    4 1
     9    4    5 1
    10    4    6 2
    11    6    7 1
    12    6   10 1
    13    7    8 2
    14    7    9 1
    15    9   41 1
    16    9   42 1
    17    9   43 1
    18   10   11 1
    19   11   35 ar
    20   11   12 ar
    21   12   20 1
    22   12   13 ar
    23   13   14 1
    24   13   33 ar
    25   14   19 ar
    26   14   15 ar
    27   15   30 1
    28   15   16 ar
    29   16   17 ar
    30   16   27 1
    31   17   18 ar
    32   17   21 1
    33   18   19 ar
    34   19   20 1
    35   21   26 1
    36   21   22 1
    37   22   23 1
    38   22   44 1
    39   22   45 1
    40   23   24 1
    41   23   46 1
    42   23   47 1
    43   24   25 1
    44   25   26 1
    45   25   48 1
    46   25   49 1
    47   26   50 1
    48   26   51 1
    49   27   28 1
    50   27   52 1
    51   27   53 1
    52   28   29 1
    53   29   30 1
    54   29   31 1
    55   29   32 1
    56   30   54 1
    57   30   55 1
    58   31   56 1
    59   31   57 1
    60   31   58 1
    61   32   59 1
    62   32   60 1
    63   32   61 1
    64   33   34 ar
    65   34   35 ar
    66   34   62 1
@<TRIPOS>MOLECULE
ZINC35024986
   55    59     0     0     0
SMALL
USER_CHARGES

@<TRIPOS>ATOM
      1 C1          0.0552    1.3768   -0.0209 C.ar      1 <0>        -0.1176
      2 C2          1.2538    2.0653   -0.0042 C.ar      1 <0>        -0.0573
      3 C3          2.4479    1.3724    0.0666 C.ar      1 <0>        -0.0599
      4 C4          2.4434   -0.0088    0.1211 C.ar      1 <0>        -0.0575
      5 C5          1.2447   -0.6973    0.1053 C.ar      1 <0>        -0.0811
      6 C6          0.0507   -0.0045    0.0331 C.ar      1 <0>        -0.0212
      7 C7         -1.2560   -0.7550    0.0149 C.3       1 <0>         0.2585
      8 H1         -2.0715   -0.0806   -0.2462 H         1 <0>         0.0792
      9 C8         -1.5132   -1.3831    1.3647 C.2       1 <0>        -0.5132
     10 C9         -1.6604   -0.6797    2.6429 C.2       1 <0>         0.5060
     11 C10        -2.8130    0.2154    2.8642 C.ar      1 <0>        -0.1346
     12 C11        -3.8290    0.3000    1.9075 C.ar      1 <0>        -0.0579
     13 C12        -4.9023    1.1365    2.1165 C.ar      1 <0>        -0.1296
     14 C13        -4.9817    1.8984    3.2772 C.ar      1 <0>         0.0638
     15 C14        -3.9739    1.8168    4.2358 C.ar      1 <0>         0.0323
     16 C15        -2.8949    0.9767    4.0334 C.ar      1 <0>        -0.0657
     17 O1         -4.0411    2.5504    5.3807 O.3       1 <0>        -0.3071
     18 C16        -4.9512    3.6556    5.3841 C.3       1 <0>         0.0208
     19 C17        -6.2862    3.1802    4.7951 C.3       1 <0>         0.0201
     20 O2         -6.0493    2.7200    3.4605 O.3       1 <0>        -0.3075
     21 O3         -0.8322   -0.8340    3.5213 O.2       1 <0>        -0.4697
     22 C18        -1.5815   -2.7201    1.1667 C.2       1 <0>         0.2730
     23 O4         -1.8011   -3.6450    2.1296 O.3       1 <0>        -0.6442
     24 C19        -1.3791   -3.0094   -0.2684 C.2       1 <0>         0.5167
     25 O5         -1.3846   -4.1189   -0.7635 O.2       1 <0>        -0.5156
     26 N1         -1.1884   -1.8627   -0.9456 N.am      1 <0>        -0.6116
     27 C20        -0.9545   -1.7411   -2.3867 C.3       1 <0>         0.1266
     28 C21         0.5483   -1.8043   -2.6666 C.3       1 <0>         0.0527
     29 H2          1.0672   -1.0533   -2.0708 H         1 <0>         0.0841
     30 C22         0.8124   -1.5563   -4.1673 C.3       1 <0>        -0.1488
     31 C23         1.9546   -2.5635   -4.4718 C.3       1 <0>        -0.1551
     32 C24         1.5735   -3.7338   -3.5306 C.3       1 <0>         0.0500
     33 O6          1.0477   -3.1082   -2.3471 O.3       1 <0>        -0.3570
     34 N2          3.7314    2.1096    0.0834 N.pl3     1 <0>         0.0409
     35 O7          3.7353    3.3176    0.0354 O.2       1 <0>        -0.1718
     36 O8          4.7757    1.5036    0.1453 O.3       1 <0>        -0.1689
     37 H3         -0.8779    1.9183   -0.0716 H         1 <0>         0.1453
     38 H4          1.2573    3.1444   -0.0468 H         1 <0>         0.1483
     39 H5          3.3763   -0.5502    0.1756 H         1 <0>         0.1484
     40 H6          1.2412   -1.7764    0.1472 H         1 <0>         0.1473
     41 H7         -3.7717   -0.2903    1.0049 H         1 <0>         0.1451
     42 H8         -5.6860    1.2010    1.3762 H         1 <0>         0.1361
     43 H9         -2.1142    0.9111    4.7768 H         1 <0>         0.1413
     44 H10        -5.1033    4.0035    6.4058 H         1 <0>         0.1193
     45 H11        -4.5485    4.4653    4.7756 H         1 <0>         0.0755
     46 H12        -6.6851    2.3654    5.3993 H         1 <0>         0.0770
     47 H13        -6.9958    4.0074    4.7781 H         1 <0>         0.1196
     48 H14        -1.4555   -2.5579   -2.9062 H         1 <0>         0.0852
     49 H15        -1.3502   -0.7888   -2.7399 H         1 <0>         0.0840
     50 H16        -0.0737   -1.7838   -4.7599 H         1 <0>         0.0790
     51 H17         1.1426   -0.5318   -4.3390 H         1 <0>         0.0797
     52 H18         1.9345   -2.8764   -5.5158 H         1 <0>         0.0806
     53 H19         2.9265   -2.1471   -4.2071 H         1 <0>         0.0761
     54 H20         0.8142   -4.3620   -3.9964 H         1 <0>         0.0588
     55 H21         2.4559   -4.3247   -3.2851 H         1 <0>         0.0818
@<TRIPOS>BOND
     1    1    6 ar
     2    1    2 ar
     3    1   37 1
     4    2    3 ar
     5    2   38 1
     6    3    4 ar
     7    3   34 1
     8    4    5 ar
     9    4   39 1
    10    5    6 ar
    11    5   40 1
    12    6    7 1
    13    7    9 1
    14    7   26 1
    15    7    8 1
    16    9   22 2
    17    9   10 1
    18   10   21 2
    19   10   11 1
    20   11   16 ar
    21   11   12 ar
    22   12   13 ar
    23   12   41 1
    24   13   14 ar
    25   13   42 1
    26   14   20 1
    27   14   15 ar
    28   15   16 ar
    29   15   17 1
    30   16   43 1
    31   17   18 1
    32   18   19 1
    33   18   44 1
    34   18   45 1
    35   19   20 1
    36   19   46 1
    37   19   47 1
    38   22   24 1
    39   22   23 1
    40   24   26 am
    41   24   25 2
    42   26   27 1
    43   27   28 1
    44   27   48 1
    45   27   49 1
    46   28   29 1
    47   28   33 1
    48   28   30 1
    49   30   31 1
    50   30   50 1
    51   30   51 1
    52   31   32 1
    53   31   52 1
    54   31   53 1
    55   32   33 1
    56   32   54 1
    57   32   55 1
    58   34   35 2
    59   34   36 1
@<TRIPOS>MOLECULE
ZINC16806142
   55    59     0     0     0
SMALL
USER_CHARGES

@<TRIPOS>ATOM
      1 C1          0.2687    1.5467    0.1426 C.3       1 <0>        -0.0915
      2 C2          0.1863    0.0426    0.0992 C.2       1 <0>         0.2194
      3 C3          0.1039   -0.6522   -1.1010 C.2       1 <0>        -0.3381
      4 S1          0.0368   -2.3335   -0.5030 S.3       1 <0>         0.1857
      5 C4          0.1168   -1.9987    1.1444 C.2       1 <0>         0.3411
      6 N1          0.1940   -0.6806    1.1894 N.2       1 <0>        -0.5545
      7 N2          0.1090   -2.8912    2.1994 N.am      1 <0>        -0.5083
      8 C5          0.0334   -4.3530    2.0935 C.3       1 <0>         0.2668
      9 H1          0.8910   -4.7335    1.5386 H         1 <0>         0.0912
     10 C6          0.0560   -4.8793    3.5097 C.2       1 <0>        -0.4940
     11 C7          0.0013   -6.2854    3.9211 C.2       1 <0>         0.5113
     12 C8          1.1135   -7.1962    3.5861 C.ar      1 <0>        -0.1670
     13 C9          2.2756   -6.6995    2.9874 C.ar      1 <0>        -0.0312
     14 C10         3.3118   -7.5482    2.6799 C.ar      1 <0>        -0.1525
     15 C11         3.2155   -8.9127    2.9604 C.ar      1 <0>         0.1215
     16 C12         2.0529   -9.4029    3.5492 C.ar      1 <0>        -0.1900
     17 C13         1.0160   -8.5626    3.8702 C.ar      1 <0>        -0.0212
     18 C14         2.2327  -10.9009    3.7053 C.3       1 <0>        -0.1037
     19 C15         3.4391  -11.1761    2.7769 C.3       1 <0>         0.0760
     20 H2          4.0818  -11.9493    3.1979 H         1 <0>         0.1138
     21 O1          4.1172   -9.9088    2.7509 O.3       1 <0>        -0.3000
     22 C16         2.9661  -11.5708    1.3764 C.3       1 <0>        -0.1707
     23 O2         -0.9611   -6.7016    4.5389 O.2       1 <0>        -0.4666
     24 C17         0.1370   -3.8017    4.3253 C.2       1 <0>         0.2764
     25 O3          0.1816   -3.8432    5.6770 O.3       1 <0>        -0.6282
     26 C18         0.1752   -2.5740    3.5052 C.2       1 <0>         0.5090
     27 O4          0.2528   -1.4440    3.9450 O.2       1 <0>        -0.4554
     28 C19        -1.2476   -4.7576    1.4107 C.ar      1 <0>        -0.1452
     29 C20        -1.2388   -5.7265    0.4187 C.ar      1 <0>        -0.0610
     30 C21        -2.4410   -6.0669   -0.1819 C.ar      1 <0>        -0.1725
     31 C22        -3.6003   -5.4337    0.2252 C.ar      1 <0>         0.0955
     32 N3         -3.5710   -4.5162    1.1718 N.ar      1 <0>        -0.4816
     33 C23        -2.4467   -4.1718    1.7691 C.ar      1 <0>         0.1323
     34 C24         0.0791   -0.1473   -2.4723 C.2       1 <0>         0.5697
     35 O5          0.1351    1.0500   -2.6808 O.2       1 <0>        -0.5033
     36 O6         -0.0059   -1.0090   -3.5071 O.3       1 <0>        -0.3514
     37 C25        -0.0254   -0.4460   -4.8203 C.3       1 <0>         0.0375
     38 H3          1.3138    1.8544    0.1099 H         1 <0>         0.0850
     39 H4         -0.2601    1.9645   -0.7141 H         1 <0>         0.0940
     40 H5         -0.1882    1.9091    1.0636 H         1 <0>         0.0808
     41 H6          2.3588   -5.6457    2.7656 H         1 <0>         0.1411
     42 H7          4.2064   -7.1573    2.2181 H         1 <0>         0.1298
     43 H8          0.1251   -8.9561    4.3369 H         1 <0>         0.1319
     44 H9          2.4685  -11.1595    4.7376 H         1 <0>         0.0895
     45 H10         1.3475  -11.4372    3.3633 H         1 <0>         0.0911
     46 H11         2.3728  -10.7611    0.9516 H         1 <0>         0.0644
     47 H12         3.8311  -11.7596    0.7405 H         1 <0>         0.0665
     48 H13         2.3575  -12.4729    1.4392 H         1 <0>         0.0741
     49 H14        -0.3172   -6.2044    0.1208 H         1 <0>         0.1358
     50 H15        -2.4714   -6.8171   -0.9582 H         1 <0>         0.1345
     51 H16        -4.5410   -5.6931   -0.2377 H         1 <0>         0.1528
     52 H17        -2.4627   -3.4198    2.5442 H         1 <0>         0.1461
     53 H18        -0.8857    0.2160   -4.9190 H         1 <0>         0.0608
     54 H19         0.8904    0.1213   -4.9861 H         1 <0>         0.0609
     55 H20        -0.0959   -1.2457   -5.5575 H         1 <0>         0.1017
@<TRIPOS>BOND
     1    1    2 1
     2    1   38 1
     3    1   39 1
     4    1   40 1
     5    2    6 1
     6    2    3 2
     7    3    4 1
     8    3   34 1
     9    4    5 1
    10    5    6 2
    11    5    7 1
    12    7   26 am
    13    7    8 1
    14    8   10 1
    15    8   28 1
    16    8    9 1
    17   10   24 2
    18   10   11 1
    19   11   23 2
    20   11   12 1
    21   12   17 ar
    22   12   13 ar
    23   13   14 ar
    24   13   41 1
    25   14   15 ar
    26   14   42 1
    27   15   21 1
    28   15   16 ar
    29   16   17 ar
    30   16   18 1
    31   17   43 1
    32   18   19 1
    33   18   44 1
    34   18   45 1
    35   19   20 1
    36   19   21 1
    37   19   22 1
    38   22   46 1
    39   22   47 1
    40   22   48 1
    41   24   26 1
    42   24   25 1
    43   26   27 2
    44   28   33 ar
    45   28   29 ar
    46   29   30 ar
    47   29   49 1
    48   30   31 ar
    49   30   50 1
    50   31   32 ar
    51   31   51 1
    52   32   33 ar
    53   33   52 1
    54   34   35 2
    55   34   36 1
    56   36   37 1
    57   37   53 1
    58   37   54 1
    59   37   55 1
@<TRIPOS>MOLECULE
ZINC17057562
   49    51     0     0     0
SMALL
USER_CHARGES

@<TRIPOS>ATOM
      1 C1          1.1277   -0.2974    1.9940 C.3       1 <0>         0.0260
      2 O1          2.4326   -0.8263    1.7500 O.3       1 <0>        -0.3061
      3 C2          2.6947   -1.2663    0.4904 C.ar      1 <0>         0.1346
      4 C3          1.7171   -1.1844   -0.4902 C.ar      1 <0>        -0.1882
      5 C4          1.9825   -1.6314   -1.7694 C.ar      1 <0>        -0.0541
      6 C5          3.2283   -2.1627   -2.0749 C.ar      1 <0>         0.1399
      7 C6          4.2071   -2.2444   -1.0940 C.ar      1 <0>        -0.0543
      8 C7          3.9426   -1.7921    0.1847 C.ar      1 <0>        -0.0570
      9 Cl1         5.1683   -1.8879    1.4103 Cl        1 <0>        -0.0599
     10 N1          3.4977   -2.6172   -3.3743 N.am      1 <0>        -0.5305
     11 C8          3.3537   -3.9287   -3.6610 C.2       1 <0>         0.5557
     12 O2          2.9939   -4.7220   -2.8112 O.2       1 <0>        -0.4978
     13 C9          3.6463   -4.3680   -5.0381 C.2       1 <0>        -0.2532
     14 C10         3.5240   -5.6920   -5.4163 C.2       1 <0>         0.0390
     15 C11         2.8639   -6.6481   -4.5282 C.ar      1 <0>        -0.0072
     16 C12         1.6606   -6.3042   -3.8933 C.ar      1 <0>        -0.1437
     17 C13         1.0415   -7.2098   -3.0561 C.ar      1 <0>         0.1395
     18 C14         1.6097   -8.4649   -2.8406 C.ar      1 <0>         0.0416
     19 C15         2.8054   -8.8110   -3.4689 C.ar      1 <0>         0.1344
     20 C16         3.4288   -7.9145   -4.3127 C.ar      1 <0>        -0.2038
     21 O3          3.3552  -10.0362   -3.2542 O.3       1 <0>        -0.3055
     22 C17         4.5810  -10.3246   -3.9296 C.3       1 <0>         0.0246
     23 O4          0.9967   -9.3527   -2.0159 O.3       1 <0>        -0.3124
     24 C18         0.0495  -10.2427   -2.6098 C.3       1 <0>         0.0363
     25 O5         -0.1244   -6.8776   -2.4399 O.3       1 <0>        -0.3034
     26 C19        -0.7126   -5.6250   -2.7964 C.3       1 <0>         0.0250
     27 C20         4.0761   -3.3262   -5.9960 C.2       1 <0>         0.5405
     28 N2          4.1728   -2.0599   -5.5598 N.2       1 <0>        -0.6639
     29 C21         3.8939   -1.7280   -4.3240 C.2       1 <0>         0.6360
     30 O6          4.0117   -0.4328   -3.9720 O.3       1 <0>        -0.6405
     31 O7          4.3366   -3.6101   -7.1528 O.2       1 <0>        -0.5383
     32 H1          0.9553    0.5595    1.3427 H         1 <0>         0.0572
     33 H2          0.3807   -1.0646    1.7904 H         1 <0>         0.0561
     34 H3          1.0517    0.0165    3.0351 H         1 <0>         0.0999
     35 H4          0.7479   -0.7712   -0.2530 H         1 <0>         0.1399
     36 H5          1.2207   -1.5681   -2.5324 H         1 <0>         0.1302
     37 H6          5.1762   -2.6579   -1.3311 H         1 <0>         0.1377
     38 H7          3.9160   -6.0203   -6.3676 H         1 <0>         0.1558
     39 H8          1.2200   -5.3323   -4.0593 H         1 <0>         0.1305
     40 H9          4.3524   -8.1853   -4.8027 H         1 <0>         0.1375
     41 H10         4.9098  -11.3314   -3.6717 H         1 <0>         0.0998
     42 H11         4.4269  -10.2574   -5.0066 H         1 <0>         0.0563
     43 H12         5.3413   -9.6051   -3.6257 H         1 <0>         0.0575
     44 H13        -0.3648  -10.8969   -1.8427 H         1 <0>         0.0890
     45 H14        -0.7538   -9.6655   -3.0678 H         1 <0>         0.0427
     46 H15         0.5446  -10.8445   -3.3719 H         1 <0>         0.0427
     47 H16        -0.0025   -4.8214   -2.6010 H         1 <0>         0.0603
     48 H17        -0.9700   -5.6328   -3.8555 H         1 <0>         0.0537
     49 H18        -1.6139   -5.4653   -2.2046 H         1 <0>         0.1000
@<TRIPOS>BOND
     1    1    2 1
     2    1   32 1
     3    1   33 1
     4    1   34 1
     5    2    3 1
     6    3    8 ar
     7    3    4 ar
     8    4    5 ar
     9    4   35 1
    10    5    6 ar
    11    5   36 1
    12    6    7 ar
    13    6   10 1
    14    7    8 ar
    15    7   37 1
    16    8    9 1
    17   10   29 1
    18   10   11 am
    19   11   12 2
    20   11   13 1
    21   13   14 2
    22   13   27 1
    23   14   15 1
    24   14   38 1
    25   15   20 ar
    26   15   16 ar
    27   16   17 ar
    28   16   39 1
    29   17   18 ar
    30   17   25 1
    31   18   19 ar
    32   18   23 1
    33   19   20 ar
    34   19   21 1
    35   20   40 1
    36   21   22 1
    37   22   41 1
    38   22   42 1
    39   22   43 1
    40   23   24 1
    41   24   44 1
    42   24   45 1
    43   24   46 1
    44   25   26 1
    45   26   47 1
    46   26   48 1
    47   26   49 1
    48   27   28 1
    49   27   31 2
    50   28   29 2
    51   29   30 1
@<TRIPOS>MOLECULE
ZINC09540531
   51    53     0     0     0
SMALL
USER_CHARGES
3-[4-(difluoromethoxy)-3-methoxy-phenyl]-2-[5-(1-piperidylsulfonyl)-2-thienyl]-prop-2-enoic acid
@<TRIPOS>ATOM
      1 C1          7.2629   -8.1506   -5.9942 C.3       1 <0>         0.0284
      2 O1          6.2684   -7.7844   -6.9529 O.3       1 <0>        -0.3129
      3 C2          5.4902   -6.7095   -6.6553 C.ar      1 <0>         0.0942
      4 C3          5.6808   -6.0265   -5.4707 C.ar      1 <0>        -0.1605
      5 C4          4.8773   -4.9193   -5.1680 C.ar      1 <0>        -0.0227
      6 C5          3.8814   -4.5157   -6.0670 C.ar      1 <0>        -0.0141
      7 C6          3.7032   -5.2003   -7.2487 C.ar      1 <0>        -0.1648
      8 C7          4.5004   -6.2976   -7.5472 C.ar      1 <0>         0.0765
      9 O2          4.3153   -6.9721   -8.7117 O.3       1 <0>        -0.3133
     10 C8          3.2843   -6.4970   -9.5797 C.3       1 <0>         0.4095
     11 F1          2.0543   -6.5494   -8.9152 F         1 <0>        -0.2025
     12 F2          3.5584   -5.1760   -9.9500 F         1 <0>        -0.1966
     13 C9          5.0741   -4.1890   -3.9115 C.2       1 <0>        -0.0633
     14 C10         5.0618   -2.8246   -3.9064 C.2       1 <0>        -0.0905
     15 C11         4.9832   -2.0926   -2.6282 C.2       1 <0>         0.0020
     16 C12         5.9097   -1.2646   -2.0481 C.2       1 <0>        -0.1923
     17 C13         5.6108   -0.6853   -0.8348 C.2       1 <0>         0.0139
     18 C14         4.4131   -0.9500   -0.2520 C.2       1 <0>        -0.7968
     19 S1          3.6596   -2.0592   -1.4304 S.3       1 <0>         0.1527
     20 S2          3.7710   -0.3571    1.2780 S.o2      1 <0>         2.7320
     21 O3          4.8905   -0.0013    2.0777 O.2       1 <0>        -0.9559
     22 O4          2.7998   -1.3027    1.7045 O.2       1 <0>        -0.9552
     23 N1          2.9546    1.0470    0.9551 N.pl3     1 <0>        -0.9950
     24 C15         1.5244    1.0212    0.6198 C.3       1 <0>         0.1212
     25 C16         1.3146    1.7651   -0.7029 C.3       1 <0>        -0.1407
     26 C17         1.9090    3.1710   -0.5927 C.3       1 <0>        -0.1145
     27 C18         3.4131    3.0714   -0.3278 C.3       1 <0>        -0.1401
     28 C19         3.6467    2.3424    0.9991 C.3       1 <0>         0.1217
     29 C20         5.1270   -2.0840   -5.1750 C.2       1 <0>         0.4911
     30 O5          5.3095   -2.6806   -6.2184 O.co2     1 <0>        -0.5995
     31 H1          7.9535   -7.3195   -5.8517 H         1 <0>         0.0536
     32 H2          6.7823   -8.3905   -5.0457 H         1 <0>         0.0522
     33 H3          7.8113   -9.0211   -6.3541 H         1 <0>         0.0954
     34 H4          6.4473   -6.3446   -4.7795 H         1 <0>         0.1331
     35 H5          3.2569   -3.6656   -5.8356 H         1 <0>         0.1242
     36 H6          2.9380   -4.8860   -7.9430 H         1 <0>         0.1347
     37 H7          3.2427   -7.1230  -10.4711 H         1 <0>         0.1762
     38 H8          5.2287   -4.7311   -2.9903 H         1 <0>         0.1242
     39 H9          6.8549   -1.0704   -2.5332 H         1 <0>         0.1423
     40 H10         6.3199   -0.0283   -0.3531 H         1 <0>         0.1404
     41 H11         0.9550    1.5119    1.4093 H         1 <0>         0.0742
     42 H12         1.1923   -0.0116    0.5148 H         1 <0>         0.0902
     43 H13         0.2478    1.8368   -0.9147 H         1 <0>         0.0749
     44 H14         1.8102    1.2226   -1.5080 H         1 <0>         0.0737
     45 H15         1.7393    3.7111   -1.5241 H         1 <0>         0.0649
     46 H16         1.4303    3.7044    0.2285 H         1 <0>         0.0618
     47 H17         3.8889    2.5167   -1.1365 H         1 <0>         0.0728
     48 H18         3.8399    4.0729   -0.2727 H         1 <0>         0.0741
     49 H19         3.2504    2.9407    1.8195 H         1 <0>         0.0739
     50 H20         4.7149    2.1812    1.1443 H         1 <0>         0.0896
     51 O6          4.9845   -0.7432   -5.1810 O.co2     1 <0>        -0.7386
@<TRIPOS>BOND
     1    1    2 1
     2    1   31 1
     3    1   32 1
     4    1   33 1
     5    2    3 1
     6    3    8 ar
     7    3    4 ar
     8    4    5 ar
     9    4   34 1
    10    5    6 ar
    11    5   13 1
    12    6    7 ar
    13    6   35 1
    14    7    8 ar
    15    7   36 1
    16    8    9 1
    17    9   10 1
    18   10   11 1
    19   10   12 1
    20   10   37 1
    21   13   14 2
    22   13   38 1
    23   14   15 1
    24   14   29 1
    25   15   19 1
    26   15   16 2
    27   16   17 1
    28   16   39 1
    29   17   18 2
    30   17   40 1
    31   18   19 1
    32   18   20 1
    33   20   21 2
    34   20   22 2
    35   20   23 1
    36   23   28 1
    37   23   24 1
    38   24   25 1
    39   24   41 1
    40   24   42 1
    41   25   26 1
    42   25   43 1
    43   25   44 1
    44   26   27 1
    45   26   45 1
    46   26   46 1
    47   27   28 1
    48   27   47 1
    49   27   48 1
    50   28   49 1
    51   28   50 1
    52   29   30 2
    53   29   51 1
@<TRIPOS>MOLECULE
ZINC09360454
   65    68     0     0     0
SMALL
USER_CHARGES
(5S)-3-hydroxy-4-(4-isobutoxybenzoyl)-1-(3-morpholinopropyl)-5-(2-thienyl)-5H-pyrrol-2-one
@<TRIPOS>ATOM
      1 C1          2.0998   -2.7431    5.0470 C.3       1 <0>        -0.1484
      2 C2          1.0406   -1.8707    5.7236 C.3       1 <0>        -0.0949
      3 C3          1.6120   -1.2852    7.0165 C.3       1 <0>        -0.1479
      4 C4          0.6396   -0.7332    4.7822 C.3       1 <0>         0.0599
      5 O1         -0.0001   -1.2755    3.6252 O.3       1 <0>        -0.3135
      6 C5         -0.4207   -0.3936    2.6835 C.ar      1 <0>         0.1421
      7 C6         -1.0508   -0.8556    1.5332 C.ar      1 <0>        -0.1675
      8 C7         -1.4789    0.0356    0.5754 C.ar      1 <0>        -0.0343
      9 C8         -1.2790    1.4071    0.7603 C.ar      1 <0>        -0.1731
     10 C9         -0.6445    1.8674    1.9182 C.ar      1 <0>        -0.0255
     11 C10        -0.2199    0.9694    2.8712 C.ar      1 <0>        -0.2253
     12 C11        -1.7310    2.3660   -0.2669 C.2       1 <0>         0.5077
     13 O2         -2.2287    1.9605   -1.3008 O.2       1 <0>        -0.4746
     14 C12        -1.5802    3.8071   -0.0416 C.2       1 <0>        -0.5047
     15 C13        -2.5777    4.7093    0.1078 C.2       1 <0>         0.2685
     16 C14        -1.9924    6.0502    0.3168 C.2       1 <0>         0.5134
     17 O3         -2.6299    7.0707    0.4856 O.2       1 <0>        -0.5284
     18 N1         -0.6495    5.9747    0.2875 N.am      1 <0>        -0.6139
     19 C15        -0.2814    4.5720    0.0620 C.3       1 <0>         0.3049
     20 H1          0.3489    4.2116    0.8883 H         1 <0>         0.0820
     21 C16         0.5013    4.4398   -1.2191 C.2       1 <0>        -0.1121
     22 C17         1.6447    3.7507   -1.4535 C.2       1 <0>        -0.1793
     23 C18         2.1897    3.7686   -2.7237 C.2       1 <0>        -0.1482
     24 C19         1.5704    4.4834   -3.6947 C.2       1 <0>        -0.2087
     25 S1          0.1674    5.1567   -2.8196 S.3       1 <0>         0.0699
     26 C20         0.2808    7.0945    0.4512 C.3       1 <0>         0.1378
     27 C21         0.5857    7.7084   -0.9166 C.3       1 <0>        -0.1490
     28 C22         1.5573    8.8779   -0.7456 C.3       1 <0>         0.0618
     29 N2          1.8500    9.4674   -2.0589 N.3       1 <0>        -0.5332
     30 C23         2.5943    8.5240   -2.9058 C.3       1 <0>         0.0135
     31 C24         2.8255    9.1545   -4.2816 C.3       1 <0>         0.0620
     32 O4          3.5144   10.3975   -4.1211 O.3       1 <0>        -0.3881
     33 C25         2.8173   11.3404   -3.3023 C.3       1 <0>         0.0622
     34 C26         2.5860   10.7320   -1.9165 C.3       1 <0>         0.0170
     35 O5         -3.9008    4.4280    0.0738 O.3       1 <0>        -0.6478
     36 H2          1.6889   -3.1640    4.1175 H         1 <0>         0.0637
     37 H3          2.3882   -3.5609    5.7238 H         1 <0>         0.0553
     38 H4          2.9838   -2.1316    4.8133 H         1 <0>         0.0541
     39 H5          0.1566   -2.4822    5.9573 H         1 <0>         0.0812
     40 H6          0.8504   -0.6580    7.5029 H         1 <0>         0.0587
     41 H7          2.4960   -0.6737    6.7828 H         1 <0>         0.0582
     42 H8          1.9004   -2.1030    7.6933 H         1 <0>         0.0636
     43 H9         -0.0542   -0.0553    5.3009 H         1 <0>         0.0635
     44 H10         1.5375   -0.1758    4.4773 H         1 <0>         0.0631
     45 H11        -1.2048   -1.9151    1.3912 H         1 <0>         0.1293
     46 H12        -1.9688   -0.3239   -0.3173 H         1 <0>         0.1363
     47 H13        -0.4879    2.9259    2.0646 H         1 <0>         0.1354
     48 H14         0.2696    1.3241    3.7662 H         1 <0>         0.1265
     49 H15         2.1213    3.1935   -0.6605 H         1 <0>         0.1268
     50 H16         3.0978    3.2248   -2.9382 H         1 <0>         0.1240
     51 H17         1.8523    4.6121   -4.7293 H         1 <0>         0.1772
     52 H18        -0.1733    7.8563    1.1020 H         1 <0>         0.0806
     53 H19         1.2142    6.7322    0.9068 H         1 <0>         0.0728
     54 H20         1.0398    6.9466   -1.5674 H         1 <0>         0.0811
     55 H21        -0.3477    8.0707   -1.3722 H         1 <0>         0.0778
     56 H22         1.1032    9.6396   -0.0947 H         1 <0>         0.0767
     57 H23         2.4907    8.5156   -0.2901 H         1 <0>         0.0338
     58 H24         3.5631    8.2963   -2.4372 H         1 <0>         0.0398
     59 H25         2.0144    7.5961   -3.0184 H         1 <0>         0.0948
     60 H26         3.4307    8.4748   -4.8994 H         1 <0>         0.0975
     61 H27         1.8566    9.3307   -4.7717 H         1 <0>         0.0611
     62 H28         3.4174   12.2573   -3.2068 H         1 <0>         0.0964
     63 H29         1.8491   11.5824   -3.7649 H         1 <0>         0.0602
     64 H30         1.9999   11.4300   -1.3006 H         1 <0>         0.0861
     65 H31         3.5546   10.5400   -1.4319 H         1 <0>         0.0402
@<TRIPOS>BOND
     1    1    2 1
     2    1   36 1
     3    1   37 1
     4    1   38 1
     5    2    3 1
     6    2    4 1
     7    2   39 1
     8    3   40 1
     9    3   41 1
    10    3   42 1
    11    4    5 1
    12    4   43 1
    13    4   44 1
    14    5    6 1
    15    6   11 ar
    16    6    7 ar
    17    7    8 ar
    18    7   45 1
    19    8    9 ar
    20    8   46 1
    21    9   10 ar
    22    9   12 1
    23   10   11 ar
    24   10   47 1
    25   11   48 1
    26   12   13 2
    27   12   14 1
    28   14   19 1
    29   14   15 2
    30   15   16 1
    31   15   35 1
    32   16   17 2
    33   16   18 am
    34   18   19 1
    35   18   26 1
    36   19   20 1
    37   19   21 1
    38   21   25 1
    39   21   22 2
    40   22   23 1
    41   22   49 1
    42   23   24 2
    43   23   50 1
    44   24   25 1
    45   24   51 1
    46   26   27 1
    47   26   52 1
    48   26   53 1
    49   27   28 1
    50   27   54 1
    51   27   55 1
    52   28   29 1
    53   28   56 1
    54   28   57 1
    55   29   34 1
    56   29   30 1
    57   30   31 1
    58   30   58 1
    59   30   59 1
    60   31   32 1
    61   31   60 1
    62   31   61 1
    63   32   33 1
    64   33   34 1
    65   33   62 1
    66   33   63 1
    67   34   64 1
    68   34   65 1
@<TRIPOS>MOLECULE
ZINC33776705
   58    61     0     0     0
SMALL
USER_CHARGES
(4Z,5R)-1-(2-furylmethyl)-4-[hydroxy(4-pyridyl)methylene]-5-(4-pentoxyphenyl)pyrrolidine-2,3-dione
@<TRIPOS>ATOM
      1 C1          7.0211   10.0730    1.1642 C.3       1 <0>        -0.1550
      2 C2          7.1761    8.5747    0.8960 C.3       1 <0>        -0.1240
      3 C3          5.7986    7.9090    0.9094 C.3       1 <0>        -0.1186
      4 C4          5.9535    6.4107    0.6413 C.3       1 <0>        -0.1187
      5 C5          4.5760    5.7450    0.6548 C.3       1 <0>         0.0597
      6 O1          4.7208    4.3456    0.4043 O.3       1 <0>        -0.3194
      7 C6          3.5835    3.6018    0.3825 C.ar      1 <0>         0.1226
      8 C7          3.6506    2.2367    0.1449 C.ar      1 <0>        -0.1500
      9 C8          2.4931    1.4830    0.1228 C.ar      1 <0>        -0.0691
     10 C9          1.2684    2.0881    0.3369 C.ar      1 <0>        -0.1059
     11 C10         1.1985    3.4495    0.5683 C.ar      1 <0>        -0.0393
     12 C11         2.3535    4.2066    0.5973 C.ar      1 <0>        -0.2029
     13 C12         0.0073    1.2635    0.3117 C.3       1 <0>         0.2579
     14 H1          0.2857    0.1995    0.2926 H         1 <0>         0.0702
     15 C13        -0.8384    1.6478   -0.8804 C.2       1 <0>        -0.4925
     16 C14        -0.4861    1.5582   -2.2085 C.2       1 <0>         0.3793
     17 C15         0.7840    0.9114   -2.5933 C.ar      1 <0>        -0.0197
     18 C16         1.6624    1.5277   -3.4940 C.ar      1 <0>        -0.1399
     19 C17         2.8412    0.8884   -3.8217 C.ar      1 <0>         0.0916
     20 N1          3.1392   -0.2887   -3.3077 N.ar      1 <0>        -0.4899
     21 C18         2.3395   -0.9065   -2.4607 C.ar      1 <0>         0.0867
     22 C19         1.1425   -0.3389   -2.0726 C.ar      1 <0>        -0.1550
     23 O2         -1.3020    2.0617   -3.1587 O.2       1 <0>        -0.6084
     24 C20        -2.0591    2.1158   -0.3571 C.2       1 <0>         0.3774
     25 O3         -3.0064    2.5197   -1.0057 O.3       1 <0>        -0.4725
     26 C21        -1.9890    2.0305    1.1275 C.2       1 <0>         0.4796
     27 O4         -2.8787    2.3575    1.8859 O.2       1 <0>        -0.5257
     28 N2         -0.7967    1.5399    1.5054 N.am      1 <0>        -0.5969
     29 C22        -0.3692    1.3169    2.8888 C.3       1 <0>         0.2085
     30 C23         0.3047    2.5589    3.4129 C.2       1 <0>        -0.0255
     31 C24        -0.3055    3.5783    4.0436 C.2       1 <0>        -0.1933
     32 C25         0.6970    4.5242    4.3583 C.2       1 <0>        -0.2184
     33 C26         1.8599    4.0262    3.9010 C.2       1 <0>        -0.0365
     34 O5          1.6171    2.8329    3.3345 O.3       1 <0>        -0.1575
     35 H2          8.0115   10.5516    1.1545 H         1 <0>         0.0538
     36 H3          6.5511   10.2228    2.1473 H         1 <0>         0.0540
     37 H4          6.3894   10.5218    0.3834 H         1 <0>         0.0546
     38 H5          7.6462    8.4249   -0.0871 H         1 <0>         0.0631
     39 H6          7.8079    8.1259    1.6767 H         1 <0>         0.0625
     40 H7          5.3285    8.0589    1.8926 H         1 <0>         0.0646
     41 H8          5.1668    8.3578    0.1287 H         1 <0>         0.0656
     42 H9          6.4236    6.2609   -0.3419 H         1 <0>         0.0732
     43 H10         6.5854    5.9619    1.4219 H         1 <0>         0.0722
     44 H11         4.1060    5.8948    1.6380 H         1 <0>         0.0576
     45 H12         3.9442    6.1938   -0.1258 H         1 <0>         0.0597
     46 H13         4.6069    1.7636   -0.0223 H         1 <0>         0.1211
     47 H14         2.5447    0.4202   -0.0621 H         1 <0>         0.1214
     48 H15         0.2402    3.9206    0.7304 H         1 <0>         0.1104
     49 H16         2.2988    5.2692    0.7829 H         1 <0>         0.1163
     50 H17         1.4227    2.4896   -3.9225 H         1 <0>         0.1313
     51 H18         3.5268    1.3568   -4.5123 H         1 <0>         0.1491
     52 H19         2.6248   -1.8701   -2.0652 H         1 <0>         0.1505
     53 H20         0.4922   -0.8508   -1.3787 H         1 <0>         0.1352
     54 H21         0.3372    0.4743    2.9229 H         1 <0>         0.0950
     55 H22        -1.2463    1.0853    3.5108 H         1 <0>         0.1120
     56 H23        -1.3593    3.6590    4.2664 H         1 <0>         0.1452
     57 H24         0.5562    5.4657    4.8682 H         1 <0>         0.1416
     58 H25         2.8258    4.5027    3.9807 H         1 <0>         0.1911
@<TRIPOS>BOND
     1    1    2 1
     2    1   35 1
     3    1   36 1
     4    1   37 1
     5    2    3 1
     6    2   38 1
     7    2   39 1
     8    3    4 1
     9    3   40 1
    10    3   41 1
    11    4    5 1
    12    4   42 1
    13    4   43 1
    14    5    6 1
    15    5   44 1
    16    5   45 1
    17    6    7 1
    18    7   12 ar
    19    7    8 ar
    20    8    9 ar
    21    8   46 1
    22    9   10 ar
    23    9   47 1
    24   10   11 ar
    25   10   13 1
    26   11   12 ar
    27   11   48 1
    28   12   49 1
    29   13   15 1
    30   13   28 1
    31   13   14 1
    32   15   24 2
    33   15   16 1
    34   16   23 2
    35   16   17 1
    36   17   22 ar
    37   17   18 ar
    38   18   19 ar
    39   18   50 1
    40   19   20 ar
    41   19   51 1
    42   20   21 ar
    43   21   22 ar
    44   21   52 1
    45   22   53 1
    46   24   26 1
    47   24   25 1
    48   26   28 am
    49   26   27 2
    50   28   29 1
    51   29   30 1
    52   29   54 1
    53   29   55 1
    54   30   34 1
    55   30   31 2
    56   31   32 1
    57   31   56 1
    58   32   33 2
    59   32   57 1
    60   33   34 1
    61   33   58 1
@<TRIPOS>MOLECULE
ZINC35298952
   61    63     0     0     0
SMALL
USER_CHARGES

@<TRIPOS>ATOM
      1 C1         -0.4208    1.4081   -0.9124 C.3       1 <0>        -0.1494
      2 C2         -0.2592   -0.0999   -0.7110 C.3       1 <0>         0.0535
      3 O1          0.6646   -0.6127   -1.6731 O.3       1 <0>        -0.3078
      4 C3          1.0011   -1.9261   -1.5670 C.ar      1 <0>         0.0976
      5 C4          0.3732   -2.7302   -0.6294 C.ar      1 <0>        -0.1647
      6 C5          0.7161   -4.0652   -0.5231 C.ar      1 <0>        -0.0704
      7 C6          1.6856   -4.6010   -1.3504 C.ar      1 <0>        -0.0780
      8 C7          2.3163   -3.8041   -2.2877 C.ar      1 <0>        -0.1710
      9 C8          1.9728   -2.4667   -2.4036 C.ar      1 <0>         0.0934
     10 O2          2.5880   -1.6829   -3.3291 O.3       1 <0>        -0.3035
     11 C9          3.5753   -2.3056   -4.1534 C.3       1 <0>         0.0843
     12 C10         4.1436   -1.2899   -5.1108 C.2       1 <0>        -0.1488
     13 C11         5.4378   -1.2220   -5.3016 C.2       1 <0>        -0.1775
     14 C12         0.0321   -4.9382    0.4972 C.3       1 <0>         0.2649
     15 H1         -0.8368   -4.4239    0.9077 H         1 <0>         0.0699
     16 C13         0.9956   -5.2954    1.6048 C.2       1 <0>        -0.5012
     17 C14         1.6747   -4.3613    2.5080 C.2       1 <0>         0.4984
     18 C15         0.8829   -3.4620    3.3723 C.ar      1 <0>        -0.1434
     19 C16        -0.5083   -3.5824    3.4217 C.ar      1 <0>        -0.0416
     20 C17        -1.2418   -2.7412    4.2300 C.ar      1 <0>        -0.1692
     21 C18        -0.6017   -1.7761    4.9932 C.ar      1 <0>         0.1057
     22 C19         0.7790   -1.6521    4.9481 C.ar      1 <0>        -0.1680
     23 C20         1.5230   -2.4917    4.1478 C.ar      1 <0>        -0.0477
     24 F1         -1.3258   -0.9535    5.7833 F         1 <0>        -0.1437
     25 O3          2.8905   -4.3268    2.5459 O.2       1 <0>        -0.4714
     26 C21         1.1107   -6.6439    1.6026 C.2       1 <0>         0.2686
     27 O4          1.8831   -7.3662    2.4464 O.3       1 <0>        -0.6459
     28 C22         0.2578   -7.2023    0.5322 C.2       1 <0>         0.5115
     29 O5          0.1440   -8.3846    0.2767 O.2       1 <0>        -0.5322
     30 N1         -0.3747   -6.2077   -0.1166 N.am      1 <0>        -0.6105
     31 C23        -1.3055   -6.3644   -1.2370 C.3       1 <0>         0.1430
     32 C24        -0.5290   -6.3231   -2.5547 C.3       1 <0>        -0.1459
     33 C25        -1.5011   -6.4867   -3.7248 C.3       1 <0>         0.0670
     34 O6         -0.7758   -6.4482   -4.9555 O.3       1 <0>        -0.3894
     35 C26        -1.5948   -6.5930   -6.1176 C.3       1 <0>         0.0323
     36 H2          0.5450    1.8972   -0.7854 H         1 <0>         0.0645
     37 H3         -0.7970    1.6023   -1.9168 H         1 <0>         0.0636
     38 H4         -1.1254    1.7993   -0.1785 H         1 <0>         0.0750
     39 H5          0.1170   -0.2941    0.2934 H         1 <0>         0.0610
     40 H6         -1.2250   -0.5890   -0.8380 H         1 <0>         0.0584
     41 H7         -0.3840   -2.3139    0.0186 H         1 <0>         0.1310
     42 H8          1.9510   -5.6443   -1.2641 H         1 <0>         0.1228
     43 H9          3.0735   -4.2251   -2.9325 H         1 <0>         0.1300
     44 H10         4.3747   -2.7013   -3.5269 H         1 <0>         0.0660
     45 H11         3.1181   -3.1194   -4.7162 H         1 <0>         0.0709
     46 H12         3.4838   -0.6181   -5.6397 H         1 <0>         0.1178
     47 H13         6.0976   -1.8938   -4.7727 H         1 <0>         0.0995
     48 H14         5.8451   -0.4941   -5.9877 H         1 <0>         0.1054
     49 H15        -1.0079   -4.3331    2.8273 H         1 <0>         0.1444
     50 H16        -2.3172   -2.8333    4.2690 H         1 <0>         0.1352
     51 H17         1.2722   -0.8987    5.5443 H         1 <0>         0.1342
     52 H18         2.5984   -2.3970    4.1166 H         1 <0>         0.1394
     53 H19        -1.8219   -7.3203   -1.1494 H         1 <0>         0.0796
     54 H20        -2.0347   -5.5545   -1.2195 H         1 <0>         0.0756
     55 H21        -0.0125   -5.3672   -2.6423 H         1 <0>         0.0845
     56 H22         0.2003   -7.1330   -2.5722 H         1 <0>         0.0745
     57 H23        -2.0175   -7.4426   -3.6372 H         1 <0>         0.0486
     58 H24        -2.2303   -5.6768   -3.7073 H         1 <0>         0.0479
     59 H25        -0.9699   -6.5531   -7.0098 H         1 <0>         0.0831
     60 H26        -2.1132   -7.5511   -6.0796 H         1 <0>         0.0393
     61 H27        -2.3260   -5.7853   -6.1497 H         1 <0>         0.0389
@<TRIPOS>BOND
     1    1    2 1
     2    1   36 1
     3    1   37 1
     4    1   38 1
     5    2    3 1
     6    2   39 1
     7    2   40 1
     8    3    4 1
     9    4    9 ar
    10    4    5 ar
    11    5    6 ar
    12    5   41 1
    13    6    7 ar
    14    6   14 1
    15    7    8 ar
    16    7   42 1
    17    8    9 ar
    18    8   43 1
    19    9   10 1
    20   10   11 1
    21   11   12 1
    22   11   44 1
    23   11   45 1
    24   12   13 2
    25   12   46 1
    26   13   47 1
    27   13   48 1
    28   14   16 1
    29   14   30 1
    30   14   15 1
    31   16   26 2
    32   16   17 1
    33   17   25 2
    34   17   18 1
    35   18   23 ar
    36   18   19 ar
    37   19   20 ar
    38   19   49 1
    39   20   21 ar
    40   20   50 1
    41   21   22 ar
    42   21   24 1
    43   22   23 ar
    44   22   51 1
    45   23   52 1
    46   26   28 1
    47   26   27 1
    48   28   30 am
    49   28   29 2
    50   30   31 1
    51   31   32 1
    52   31   53 1
    53   31   54 1
    54   32   33 1
    55   32   55 1
    56   32   56 1
    57   33   34 1
    58   33   57 1
    59   33   58 1
    60   34   35 1
    61   35   59 1
    62   35   60 1
    63   35   61 1
@<TRIPOS>MOLECULE
ZINC39827233
   60    62     0     0     0
SMALL
USER_CHARGES

@<TRIPOS>ATOM
      1 C1          7.6386    0.3257   -1.1913 C.3       1 <0>        -0.1499
      2 C2          7.5650   -1.1986   -1.0827 C.3       1 <0>        -0.1231
      3 C3          6.7757   -1.5832    0.1703 C.3       1 <0>         0.0576
      4 O1          6.7070   -3.0069    0.2717 O.3       1 <0>        -0.3169
      5 C4          6.0363   -3.5171    1.3353 C.ar      1 <0>         0.1393
      6 C5          5.4502   -2.6609    2.2610 C.ar      1 <0>        -0.2259
      7 C6          4.7689   -3.1743    3.3414 C.ar      1 <0>        -0.0358
      8 C7          4.6664   -4.5589    3.5070 C.ar      1 <0>        -0.1690
      9 C8          5.2568   -5.4163    2.5735 C.ar      1 <0>        -0.0184
     10 C9          5.9321   -4.8946    1.4934 C.ar      1 <0>        -0.1672
     11 C10         3.9372   -5.1139    4.6642 C.2       1 <0>         0.5036
     12 O2          3.5115   -4.3705    5.5286 O.2       1 <0>        -0.4822
     13 C11         3.7258   -6.5609    4.7722 C.2       1 <0>        -0.4951
     14 C12         4.1655   -7.3689    5.7648 C.2       1 <0>         0.2603
     15 C13         3.7355   -8.7557    5.4884 C.2       1 <0>         0.5097
     16 O3          3.9757   -9.7142    6.1953 O.2       1 <0>        -0.5415
     17 N1          3.0389   -8.7998    4.3382 N.am      1 <0>        -0.6069
     18 C14         2.9694   -7.4361    3.8003 C.3       1 <0>         0.2677
     19 H1          3.4401   -7.3988    2.8178 H         1 <0>         0.0760
     20 C15         1.5345   -6.9854    3.7056 C.ar      1 <0>        -0.0852
     21 C16         0.7194   -7.0348    4.8201 C.ar      1 <0>        -0.0126
     22 C17        -0.5972   -6.6220    4.7339 C.ar      1 <0>        -0.1602
     23 C18        -1.1016   -6.1584    3.5326 C.ar      1 <0>        -0.0901
     24 C19        -0.2907   -6.1067    2.4157 C.ar      1 <0>        -0.2165
     25 C20         1.0325   -6.5154    2.5010 C.ar      1 <0>         0.1374
     26 O4          1.8340   -6.4603    1.4048 O.3       1 <0>        -0.3110
     27 C21         1.2822   -5.8688    0.2268 C.3       1 <0>         0.0589
     28 C22         2.2857   -5.9883   -0.9219 C.3       1 <0>        -0.1507
     29 C23         2.4486   -9.9964    3.7332 C.3       1 <0>         0.1407
     30 C24         1.0901  -10.2769    4.3785 C.3       1 <0>         0.0405
     31 O5          0.1359   -9.3193    3.9153 O.3       1 <0>        -0.3644
     32 C25        -1.2017   -9.5753    4.3482 C.3       1 <0>         0.0349
     33 O6          4.8845   -6.9705    6.8394 O.3       1 <0>        -0.6556
     34 H2          8.1370    0.7292   -0.3098 H         1 <0>         0.0575
     35 H3          8.2009    0.5997   -2.0839 H         1 <0>         0.0626
     36 H4          6.6303    0.7344   -1.2574 H         1 <0>         0.0571
     37 H5          7.0666   -1.6020   -1.9641 H         1 <0>         0.0722
     38 H6          8.5734   -1.6073   -1.0165 H         1 <0>         0.0727
     39 H7          7.2741   -1.1797    1.0518 H         1 <0>         0.0614
     40 H8          5.7673   -1.1745    0.1041 H         1 <0>         0.0608
     41 H9          5.5299   -1.5915    2.1324 H         1 <0>         0.1240
     42 H10         4.3146   -2.5086    4.0603 H         1 <0>         0.1298
     43 H11         5.1798   -6.4864    2.6978 H         1 <0>         0.1399
     44 H12         6.3850   -5.5562    0.7697 H         1 <0>         0.1288
     45 H13         1.1110   -7.3965    5.7594 H         1 <0>         0.1130
     46 H14        -1.2329   -6.6620    5.6060 H         1 <0>         0.1095
     47 H15        -2.1306   -5.8368    3.4677 H         1 <0>         0.1102
     48 H16        -0.6851   -5.7445    1.4778 H         1 <0>         0.1148
     49 H17         0.3601   -6.3847   -0.0411 H         1 <0>         0.0550
     50 H18         1.0684   -4.8166    0.4146 H         1 <0>         0.0550
     51 H19         3.2369   -5.5495   -0.6205 H         1 <0>         0.0690
     52 H20         2.4325   -7.0399   -1.1682 H         1 <0>         0.0629
     53 H21         1.9027   -5.4606   -1.7953 H         1 <0>         0.0708
     54 H22         2.3163   -9.8350    2.6633 H         1 <0>         0.0853
     55 H23         3.1097  -10.8482    3.8931 H         1 <0>         0.0885
     56 H24         0.7593  -11.2796    4.1078 H         1 <0>         0.0511
     57 H25         1.1807  -10.2045    5.4623 H         1 <0>         0.0528
     58 H26        -1.4898  -10.5862    4.0597 H         1 <0>         0.0303
     59 H27        -1.2578   -9.4770    5.4323 H         1 <0>         0.0354
     60 H28        -1.8778   -8.8581    3.8829 H         1 <0>         0.0812
@<TRIPOS>BOND
     1    1    2 1
     2    1   34 1
     3    1   35 1
     4    1   36 1
     5    2    3 1
     6    2   37 1
     7    2   38 1
     8    3    4 1
     9    3   39 1
    10    3   40 1
    11    4    5 1
    12    5   10 ar
    13    5    6 ar
    14    6    7 ar
    15    6   41 1
    16    7    8 ar
    17    7   42 1
    18    8    9 ar
    19    8   11 1
    20    9   10 ar
    21    9   43 1
    22   10   44 1
    23   11   12 2
    24   11   13 1
    25   13   18 1
    26   13   14 2
    27   14   15 1
    28   14   33 1
    29   15   16 2
    30   15   17 am
    31   17   18 1
    32   17   29 1
    33   18   19 1
    34   18   20 1
    35   20   25 ar
    36   20   21 ar
    37   21   22 ar
    38   21   45 1
    39   22   23 ar
    40   22   46 1
    41   23   24 ar
    42   23   47 1
    43   24   25 ar
    44   24   48 1
    45   25   26 1
    46   26   27 1
    47   27   28 1
    48   27   49 1
    49   27   50 1
    50   28   51 1
    51   28   52 1
    52   28   53 1
    53   29   30 1
    54   29   54 1
    55   29   55 1
    56   30   31 1
    57   30   56 1
    58   30   57 1
    59   31   32 1
    60   32   58 1
    61   32   59 1
    62   32   60 1
@<TRIPOS>MOLECULE
ZINC08907544
   54    57     0     0     0
SMALL
USER_CHARGES
N-[5-[(2-fluorophenyl)carbamoylmethylsulfanyl]-1,3,4-thiadiazol-2-yl]-1-(3-methoxyphenyl)-5-oxo-pyrrolidine-3-carboxamide
@<TRIPOS>ATOM
      1 C1         -9.7950    4.2524    2.1881 C.3       1 <0>         0.0266
      2 O1         -8.3982    4.5466    2.2550 O.3       1 <0>        -0.3136
      3 C2         -7.5680    3.7706    1.5097 C.ar      1 <0>         0.1558
      4 C3         -8.0880    2.7468    0.7299 C.ar      1 <0>        -0.2310
      5 C4         -7.2452    1.9573   -0.0286 C.ar      1 <0>        -0.0509
      6 C5         -5.8824    2.1842   -0.0135 C.ar      1 <0>        -0.1926
      7 C6         -5.3563    3.2069    0.7652 C.ar      1 <0>         0.2017
      8 C7         -6.2010    3.9973    1.5323 C.ar      1 <0>        -0.1909
      9 N1         -3.9762    3.4364    0.7809 N.am      1 <0>        -0.5567
     10 C8         -3.0105    2.7363   -0.0742 C.3       1 <0>         0.1111
     11 C9         -1.7264    3.5941   -0.0338 C.3       1 <0>        -0.1168
     12 H1         -1.7083    4.3083   -0.8571 H         1 <0>         0.1351
     13 C10        -1.8735    4.3180    1.3246 C.3       1 <0>        -0.1463
     14 C11        -3.3644    4.3267    1.5809 C.2       1 <0>         0.5201
     15 O2         -3.9260    5.0342    2.3903 O.2       1 <0>        -0.4933
     16 C12        -0.4960    2.7243   -0.0509 C.2       1 <0>         0.5247
     17 O3         -0.6072    1.5171   -0.0918 O.2       1 <0>        -0.4545
     18 N2          0.7281    3.2878   -0.0264 N.am      1 <0>        -0.6082
     19 C13         1.8653    2.4840   -0.0480 C.2       1 <0>         0.2773
     20 N3          1.9745    1.1662   -0.0857 N.2       1 <0>        -0.2681
     21 N4          3.0955    0.5885   -0.1049 N.2       1 <0>        -0.2599
     22 C14         4.2335    1.2665   -0.0771 C.2       1 <0>        -0.0048
     23 S1          3.5969    2.9392   -0.0247 S.3       1 <0>         0.0628
     24 S2          5.8977    0.6877   -0.0892 S.3       1 <0>         0.1431
     25 C15         5.7339   -1.1179   -0.1492 C.3       1 <0>        -0.1627
     26 C16         7.1035   -1.7464   -0.1642 C.2       1 <0>         0.5408
     27 O4          8.0928   -1.0452   -0.1370 O.2       1 <0>        -0.5010
     28 N5          7.2291   -3.0876   -0.2077 N.am      1 <0>        -0.6621
     29 C17         8.4988   -3.6689   -0.3135 C.ar      1 <0>         0.1092
     30 C18         9.5895   -3.0756    0.3072 C.ar      1 <0>        -0.0933
     31 C19        10.8398   -3.6541    0.2056 C.ar      1 <0>        -0.1098
     32 C20        11.0089   -4.8174   -0.5226 C.ar      1 <0>        -0.1007
     33 C21         9.9266   -5.4094   -1.1472 C.ar      1 <0>        -0.1356
     34 C22         8.6709   -4.8386   -1.0453 C.ar      1 <0>         0.0758
     35 F1          7.6135   -5.4164   -1.6562 F         1 <0>        -0.1360
     36 H2        -10.1398    4.3585    1.1595 H         1 <0>         0.0570
     37 H3         -9.9677    3.2305    2.5257 H         1 <0>         0.0570
     38 H4        -10.3430    4.9440    2.8281 H         1 <0>         0.1019
     39 H5         -9.1529    2.5673    0.7158 H         1 <0>         0.1301
     40 H6         -7.6524    1.1616   -0.6348 H         1 <0>         0.1316
     41 H7         -5.2257    1.5662   -0.6079 H         1 <0>         0.1290
     42 H8         -5.7941    4.7906    2.1419 H         1 <0>         0.1628
     43 H9         -3.3884    2.6707   -1.0945 H         1 <0>         0.1013
     44 H10        -2.8106    1.7393    0.3182 H         1 <0>         0.1056
     45 H11        -1.3548    3.7666    2.1089 H         1 <0>         0.1179
     46 H12        -1.4920    5.3369    1.2572 H         1 <0>         0.1240
     47 H13         0.8170    4.2531    0.0063 H         1 <0>         0.4323
     48 H14         5.1856   -1.4624    0.7276 H         1 <0>         0.1351
     49 H15         5.1930   -1.4039   -1.0513 H         1 <0>         0.1352
     50 H16         6.4401   -3.6502   -0.1658 H         1 <0>         0.4188
     51 H17         9.4599   -2.1644    0.8724 H         1 <0>         0.1507
     52 H18        11.6875   -3.1946    0.6921 H         1 <0>         0.1361
     53 H19        11.9886   -5.2644   -0.6040 H         1 <0>         0.1366
     54 H20        10.0620   -6.3179   -1.7152 H         1 <0>         0.1415
@<TRIPOS>BOND
     1    1    2 1
     2    1   36 1
     3    1   37 1
     4    1   38 1
     5    2    3 1
     6    3    8 ar
     7    3    4 ar
     8    4    5 ar
     9    4   39 1
    10    5    6 ar
    11    5   40 1
    12    6    7 ar
    13    6   41 1
    14    7    8 ar
    15    7    9 1
    16    8   42 1
    17    9   14 am
    18    9   10 1
    19   10   11 1
    20   10   43 1
    21   10   44 1
    22   11   12 1
    23   11   13 1
    24   11   16 1
    25   13   14 1
    26   13   45 1
    27   13   46 1
    28   14   15 2
    29   16   17 2
    30   16   18 am
    31   18   19 1
    32   18   47 1
    33   19   23 1
    34   19   20 2
    35   20   21 1
    36   21   22 2
    37   22   23 1
    38   22   24 1
    39   24   25 1
    40   25   26 1
    41   25   48 1
    42   25   49 1
    43   26   27 2
    44   26   28 am
    45   28   29 1
    46   28   50 1
    47   29   34 ar
    48   29   30 ar
    49   30   31 ar
    50   30   51 1
    51   31   32 ar
    52   31   52 1
    53   32   33 ar
    54   32   53 1
    55   33   34 ar
    56   33   54 1
    57   34   35 1
@<TRIPOS>MOLECULE
ZINC10601967
   59    61     0     0     0
SMALL
USER_CHARGES
ethyl 7-[2-[4-(isopropylsulfamoyl)benzoyl]oxyacetyl]amino-6-thiabicyclo[3.3.0]octa-7,9-diene-8-carboxylate
@<TRIPOS>ATOM
      1 C1          8.5434   -1.8718    2.4409 C.3       1 <0>        -0.1532
      2 C2          8.3549   -1.3129    1.0292 C.3       1 <0>         0.0578
      3 O1          7.9082    0.0664    1.1103 O.3       1 <0>        -0.3503
      4 C3          7.6935    0.7101   -0.0554 C.2       1 <0>         0.5296
      5 O2          7.8749    0.1335   -1.1109 O.2       1 <0>        -0.4930
      6 C4          7.2420    2.1031   -0.0502 C.2       1 <0>        -0.1880
      7 C5          8.1982    3.2103   -0.0588 C.2       1 <0>        -0.0918
      8 C6          7.6500    4.4383   -0.0473 C.2       1 <0>        -0.2282
      9 S1          5.8973    4.1516   -0.0314 S.3       1 <0>         0.2840
     10 C7          5.8936    2.4210   -0.0412 C.2       1 <0>         0.0718
     11 N1          4.8060    1.5618   -0.0354 N.am      1 <0>        -0.6155
     12 C8          3.5538    2.0599   -0.0208 C.2       1 <0>         0.5139
     13 O3          3.3786    3.2599   -0.0127 O.2       1 <0>        -0.4707
     14 C9          2.3712    1.1257   -0.0145 C.3       1 <0>         0.0569
     15 O4          1.1429    1.8999    0.0013 O.3       1 <0>        -0.3245
     16 C10        -0.0144    1.2105    0.0087 C.2       1 <0>         0.5113
     17 O5          0.0021   -0.0041    0.0020 O.2       1 <0>        -0.4884
     18 C11        -1.3036    1.9317    0.0187 C.ar      1 <0>        -0.0715
     19 C12        -1.3262    3.3277    0.0322 C.ar      1 <0>        -0.0789
     20 C13        -2.5336    3.9948    0.0357 C.ar      1 <0>        -0.0330
     21 C14        -3.7205    3.2836    0.0374 C.ar      1 <0>        -0.6454
     22 C15        -3.7054    1.9000    0.0299 C.ar      1 <0>        -0.0282
     23 C16        -2.5051    1.2203    0.0206 C.ar      1 <0>        -0.0725
     24 S2         -5.2583    4.1438    0.0488 S.o2      1 <0>         2.6916
     25 O6         -5.0071    5.4319   -0.4962 O.2       1 <0>        -0.9479
     26 O7         -6.2231    3.2582   -0.5027 O.2       1 <0>        -0.9517
     27 N2         -5.6787    4.3743    1.6338 N.pl3     1 <0>        -1.1096
     28 C17        -4.8556    5.2288    2.4932 C.3       1 <0>         0.1383
     29 C18        -5.7542    5.9743    3.4820 C.3       1 <0>        -0.1577
     30 C19        -3.8557    4.3647    3.2642 C.3       1 <0>        -0.1786
     31 C20         8.6940    5.5221   -0.0544 C.3       1 <0>        -0.0323
     32 C21         9.9885    4.8125   -0.5090 C.3       1 <0>        -0.1157
     33 C22         9.7202    3.3589   -0.0710 C.3       1 <0>        -0.0627
     34 H1          7.5963   -1.8276    2.9786 H         1 <0>         0.0668
     35 H2          8.8787   -2.9071    2.3800 H         1 <0>         0.0825
     36 H3          9.2895   -1.2788    2.9698 H         1 <0>         0.0683
     37 H4          7.6088   -1.9059    0.5003 H         1 <0>         0.0709
     38 H5          9.3020   -1.3570    0.4914 H         1 <0>         0.0726
     39 H6          4.9461    0.6020   -0.0419 H         1 <0>         0.4223
     40 H7          2.4131    0.4925    0.8717 H         1 <0>         0.1163
     41 H8          2.3961    0.5021   -0.9082 H         1 <0>         0.1163
     42 H9         -0.4005    3.8840    0.0354 H         1 <0>         0.1537
     43 H10        -2.5525    5.0746    0.0412 H         1 <0>         0.1521
     44 H11        -4.6355    1.3511    0.0310 H         1 <0>         0.1533
     45 H12        -2.4947    0.1404    0.0143 H         1 <0>         0.1506
     46 H13        -6.4700    3.9434    1.9933 H         1 <0>         0.4211
     47 H14        -4.3154    5.9491    1.8789 H         1 <0>         0.0942
     48 H15        -6.2944    5.2540    4.0963 H         1 <0>         0.0635
     49 H16        -5.1418    6.6101    4.1213 H         1 <0>         0.0733
     50 H17        -6.4665    6.5899    2.9327 H         1 <0>         0.0660
     51 H18        -4.3960    3.6444    3.8785 H         1 <0>         0.0654
     52 H19        -3.2156    3.8336    2.5598 H         1 <0>         0.0586
     53 H20        -3.2433    5.0005    3.9036 H         1 <0>         0.0729
     54 H21         8.4225    6.3068   -0.7606 H         1 <0>         0.0822
     55 H22         8.8187    5.9363    0.9461 H         1 <0>         0.0881
     56 H23        10.1102    4.8780   -1.5902 H         1 <0>         0.0786
     57 H24        10.8584    5.2207    0.0055 H         1 <0>         0.0866
     58 H25        10.1614    2.6626   -0.7841 H         1 <0>         0.0740
     59 H26        10.1254    3.1845    0.9258 H         1 <0>         0.0841
@<TRIPOS>BOND
     1    1    2 1
     2    1   34 1
     3    1   35 1
     4    1   36 1
     5    2    3 1
     6    2   37 1
     7    2   38 1
     8    3    4 1
     9    4    5 2
    10    4    6 1
    11    6   10 2
    12    6    7 1
    13    7   33 1
    14    7    8 2
    15    8    9 1
    16    8   31 1
    17    9   10 1
    18   10   11 1
    19   11   12 am
    20   11   39 1
    21   12   13 2
    22   12   14 1
    23   14   15 1
    24   14   40 1
    25   14   41 1
    26   15   16 1
    27   16   17 2
    28   16   18 1
    29   18   23 ar
    30   18   19 ar
    31   19   20 ar
    32   19   42 1
    33   20   21 ar
    34   20   43 1
    35   21   22 ar
    36   21   24 1
    37   22   23 ar
    38   22   44 1
    39   23   45 1
    40   24   25 2
    41   24   26 2
    42   24   27 1
    43   27   28 1
    44   27   46 1
    45   28   29 1
    46   28   30 1
    47   28   47 1
    48   29   48 1
    49   29   49 1
    50   29   50 1
    51   30   51 1
    52   30   52 1
    53   30   53 1
    54   31   32 1
    55   31   54 1
    56   31   55 1
    57   32   33 1
    58   32   56 1
    59   32   57 1
    60   33   58 1
    61   33   59 1
@<TRIPOS>MOLECULE
ZINC20106529
   74    78     0     0     0
SMALL
USER_CHARGES
N-cyclohexyl-N'-(4-ethoxyphenyl)-(3-methoxypropyl)-oxo-BLAHdicarboxamide
@<TRIPOS>ATOM
      1 C1         -1.9839   -3.8024   -8.9066 C.3       1 <0>        -0.1547
      2 C2         -1.8491   -2.6694   -7.8872 C.3       1 <0>         0.0518
      3 O1         -2.4485   -3.0662   -6.6521 O.3       1 <0>        -0.3161
      4 C3         -2.4145   -2.1671   -5.6326 C.ar      1 <0>         0.1173
      5 C4         -2.9781   -2.4879   -4.4063 C.ar      1 <0>        -0.1334
      6 C5         -2.9439   -1.5753   -3.3705 C.ar      1 <0>        -0.1035
      7 C6         -2.3449   -0.3366   -3.5565 C.ar      1 <0>         0.1119
      8 C7         -1.7857   -0.0142   -4.7858 C.ar      1 <0>        -0.0805
      9 C8         -1.8159   -0.9297   -5.8191 C.ar      1 <0>        -0.1880
     10 N1         -2.3099    0.5898   -2.5060 N.am      1 <0>        -0.6791
     11 C9         -1.2616    1.4276   -2.3810 C.2       1 <0>         0.5239
     12 O2         -0.3053    1.3167   -3.1188 O.2       1 <0>        -0.5132
     13 C10        -1.2776    2.5021   -1.3245 C.3       1 <0>        -0.1207
     14 H1         -2.1233    3.1436   -1.6129 H         1 <0>         0.1315
     15 C11        -1.3670    1.8786    0.1059 C.3       1 <0>         0.1080
     16 H2         -2.3541    1.4861    0.3914 H         1 <0>         0.1523
     17 C12        -0.2280    0.8588    0.2193 C.2       1 <0>        -0.1849
     18 C13         0.9156    1.5484    0.3162 C.2       1 <0>        -0.1577
     19 C14         0.4801    2.9672    0.2286 C.3       1 <0>         0.1318
     20 C15         0.0662    3.2364   -1.2652 C.3       1 <0>        -0.1459
     21 H3          0.6820    2.9377   -2.1263 H         1 <0>         0.1584
     22 C16        -0.0268    4.7361   -1.2694 C.2       1 <0>         0.5431
     23 O3         -0.7086    5.3949   -2.0257 O.2       1 <0>        -0.5078
     24 N2          0.7729    5.2374   -0.2941 N.am      1 <0>        -0.5962
     25 C17         1.3540    4.1459    0.5240 C.3       1 <0>         0.1474
     26 H4          1.3782    4.3998    1.5940 H         1 <0>         0.1268
     27 C18         2.7743    3.8691    0.1032 C.2       1 <0>         0.5077
     28 O4          3.1924    4.3091   -0.9468 O.2       1 <0>        -0.5160
     29 N3          3.5800    3.1325    0.8938 N.am      1 <0>        -0.7336
     30 C19         4.9607    2.8635    0.4847 C.3       1 <0>         0.1496
     31 C20         4.9911    1.6415   -0.4355 C.3       1 <0>        -0.1284
     32 C21         6.4332    1.3605   -0.8627 C.3       1 <0>        -0.1188
     33 C22         7.2880    1.0872    0.3764 C.3       1 <0>        -0.1228
     34 C23         7.2577    2.3091    1.2967 C.3       1 <0>        -0.1175
     35 C24         5.8156    2.5901    1.7238 C.3       1 <0>        -0.1246
     36 C25         1.0278    6.6640   -0.0790 C.3       1 <0>         0.1340
     37 C26        -0.0142    7.2280    0.8890 C.3       1 <0>        -0.1366
     38 C27         0.2520    8.7178    1.1136 C.3       1 <0>         0.0626
     39 O5         -0.7212    9.2446    2.0177 O.3       1 <0>        -0.3906
     40 C28        -0.5618   10.6370    2.2967 C.3       1 <0>         0.0285
     41 O6         -0.8055    2.9866    0.9053 O.3       1 <0>        -0.3245
     42 H5         -1.5225   -3.4970   -9.8573 H         1 <0>         0.0799
     43 H6         -3.0489   -4.0236   -9.0702 H         1 <0>         0.0674
     44 H7         -1.4771   -4.7011   -8.5251 H         1 <0>         0.0672
     45 H8         -0.7841   -2.4482   -7.7236 H         1 <0>         0.0630
     46 H9         -2.3558   -1.7707   -8.2687 H         1 <0>         0.0630
     47 H10        -3.4439   -3.4515   -4.2617 H         1 <0>         0.1350
     48 H11        -3.3827   -1.8252   -2.4158 H         1 <0>         0.1335
     49 H12        -1.3236    0.9509   -4.9325 H         1 <0>         0.1354
     50 H13        -1.3770   -0.6807   -6.7740 H         1 <0>         0.1304
     51 H14        -3.1380    0.6333   -1.7833 H         1 <0>         0.4336
     52 H15        -0.2098   -0.2410    0.2318 H         1 <0>         0.1577
     53 H16         1.8711    1.0156    0.4306 H         1 <0>         0.1665
     54 H17         3.2009    2.7334    1.8461 H         1 <0>         0.4207
     55 H18         5.3216    3.7570   -0.0457 H         1 <0>         0.0879
     56 H19         4.5909    0.7685    0.1009 H         1 <0>         0.0642
     57 H20         4.3764    1.8379   -1.3263 H         1 <0>         0.0677
     58 H21         6.4550    0.4820   -1.5243 H         1 <0>         0.0656
     59 H22         6.8335    2.2335   -1.3991 H         1 <0>         0.0644
     60 H23         6.8877    0.2142    0.9127 H         1 <0>         0.0631
     61 H24         8.3248    0.8851    0.0694 H         1 <0>         0.0644
     62 H25         7.8723    2.1125    2.1875 H         1 <0>         0.0682
     63 H26         7.6581    3.1821    0.7604 H         1 <0>         0.0652
     64 H27         5.7937    3.4686    2.3855 H         1 <0>         0.0694
     65 H28         5.4153    1.7171    2.2601 H         1 <0>         0.0701
     66 H29         2.0334    6.7967    0.3466 H         1 <0>         0.0827
     67 H30         0.9628    7.1970   -1.0391 H         1 <0>         0.0903
     68 H31        -1.0198    7.0953    0.4634 H         1 <0>         0.0793
     69 H32         0.0508    6.6951    1.8491 H         1 <0>         0.0753
     70 H33         1.2576    8.8505    1.5392 H         1 <0>         0.0511
     71 H34         0.1870    9.2507    0.1535 H         1 <0>         0.0529
     72 H35        -1.3456   10.9628    2.9964 H         1 <0>         0.0884
     73 H36        -0.6439   11.2101    1.3614 H         1 <0>         0.0429
     74 H37         0.4268   10.8099    2.7471 H         1 <0>         0.0423
@<TRIPOS>BOND
     1    1    2 1
     2    1   42 1
     3    1   43 1
     4    1   44 1
     5    2    3 1
     6    2   45 1
     7    2   46 1
     8    3    4 1
     9    4    9 ar
    10    4    5 ar
    11    5    6 ar
    12    5   47 1
    13    6    7 ar
    14    6   48 1
    15    7    8 ar
    16    7   10 1
    17    8    9 ar
    18    8   49 1
    19    9   50 1
    20   10   11 am
    21   10   51 1
    22   11   12 2
    23   11   13 1
    24   13   14 1
    25   13   20 1
    26   13   15 1
    27   15   16 1
    28   15   41 1
    29   15   17 1
    30   17   18 2
    31   17   52 1
    32   18   19 1
    33   18   53 1
    34   19   25 1
    35   19   20 1
    36   19   41 1
    37   20   21 1
    38   20   22 1
    39   22   23 2
    40   22   24 am
    41   24   25 1
    42   24   36 1
    43   25   26 1
    44   25   27 1
    45   27   28 2
    46   27   29 am
    47   29   30 1
    48   29   54 1
    49   30   35 1
    50   30   31 1
    51   30   55 1
    52   31   32 1
    53   31   56 1
    54   31   57 1
    55   32   33 1
    56   32   58 1
    57   32   59 1
    58   33   34 1
    59   33   60 1
    60   33   61 1
    61   34   35 1
    62   34   62 1
    63   34   63 1
    64   35   64 1
    65   35   65 1
    66   36   37 1
    67   36   66 1
    68   36   67 1
    69   37   38 1
    70   37   68 1
    71   37   69 1
    72   38   39 1
    73   38   70 1
    74   38   71 1
    75   39   40 1
    76   40   72 1
    77   40   73 1
    78   40   74 1
@<TRIPOS>MOLECULE
ZINC35266169
   70    73     0     0     0
SMALL
USER_CHARGES

@<TRIPOS>ATOM
      1 C1          0.2737    0.8893    2.5469 C.3       1 <0>        -0.1538
      2 C2          0.2121   -0.4611    1.8303 C.3       1 <0>         0.0597
      3 O1         -1.1225   -0.9689    1.8852 O.3       1 <0>        -0.3510
      4 C3         -1.3479   -2.1549    1.2982 C.2       1 <0>         0.4635
      5 O2         -0.4420   -2.7423    0.7558 O.2       1 <0>        -0.5095
      6 C4         -2.7307   -2.7536    1.3157 C.3       1 <0>        -0.0999
      7 C5         -2.7141   -4.0970    0.5836 C.3       1 <0>        -0.1296
      8 C6         -4.0969   -4.6957    0.6011 C.2       1 <0>         0.5175
      9 O3         -5.0063   -4.1060    1.1456 O.2       1 <0>        -0.5168
     10 N1         -4.3232   -5.8865    0.0117 N.am      1 <0>        -0.6735
     11 C7         -5.5848   -6.4892    0.1110 C.ar      1 <0>         0.1293
     12 C8         -6.7316   -5.7011    0.1142 C.ar      1 <0>        -0.0844
     13 C9         -7.9776   -6.2840    0.2115 C.ar      1 <0>        -0.1160
     14 C10        -8.0962   -7.6650    0.3066 C.ar      1 <0>         0.2303
     15 C11        -6.9440   -8.4655    0.3035 C.ar      1 <0>        -0.1343
     16 C12        -5.6862   -7.8660    0.1998 C.ar      1 <0>        -0.1076
     17 C13        -7.0600   -9.9319    0.4041 C.2       1 <0>         0.5622
     18 O4         -8.1565  -10.4505    0.4901 O.2       1 <0>        -0.5012
     19 N2         -5.9508  -10.6974    0.4008 N.am      1 <0>        -0.7058
     20 C14        -6.0661  -12.1545    0.5008 C.3       1 <0>         0.0847
     21 C15        -5.0988  -12.8768    1.4407 C.3       1 <0>        -0.1939
     22 C16        -4.9242  -12.9946   -0.0747 C.3       1 <0>        -0.1900
     23 N3         -9.3530   -8.2520    0.4051 N.pl3     1 <0>        -0.6586
     24 C17        -9.9710   -8.4804    1.7188 C.3       1 <0>         0.1418
     25 C18       -11.3490   -7.8073    1.7359 C.3       1 <0>         0.1344
     26 N4        -12.0833   -8.2098    0.5282 N.pl3     1 <0>        -0.6616
     27 C19       -11.4653   -7.9814   -0.7855 C.3       1 <0>         0.1343
     28 C20       -10.0897   -8.6494   -0.8029 C.3       1 <0>         0.1421
     29 C21       -13.3483   -8.8006    0.6273 C.ar      1 <0>         0.1396
     30 C22       -14.4878   -8.0095    0.6197 C.ar      1 <0>        -0.0880
     31 C23       -15.7360   -8.5954    0.7172 C.ar      1 <0>        -0.1541
     32 C24       -15.8523   -9.9690    0.8225 C.ar      1 <0>        -0.0850
     33 C25       -14.7207  -10.7639    0.8308 C.ar      1 <0>        -0.2090
     34 C26       -13.4666  -10.1851    0.7281 C.ar      1 <0>         0.1201
     35 O5        -12.3531  -10.9661    0.7309 O.3       1 <0>        -0.2956
     36 C27       -12.5507  -12.3773    0.8372 C.3       1 <0>         0.0278
     37 H1          1.2917    1.2767    2.5051 H         1 <0>         0.0808
     38 H2         -0.4024    1.5910    2.0585 H         1 <0>         0.0677
     39 H3         -0.0242    0.7623    3.5877 H         1 <0>         0.0676
     40 H4          0.5100   -0.3340    0.7896 H         1 <0>         0.0687
     41 H5          0.8882   -1.1628    2.3187 H         1 <0>         0.0686
     42 H6         -3.0476   -2.9060    2.3474 H         1 <0>         0.1168
     43 H7         -3.4258   -2.0773    0.8182 H         1 <0>         0.1170
     44 H8         -2.3972   -3.9446   -0.4481 H         1 <0>         0.1090
     45 H9         -2.0190   -4.7733    1.0811 H         1 <0>         0.1090
     46 H10        -3.6129   -6.3265   -0.4812 H         1 <0>         0.4136
     47 H11        -6.6454   -4.6270    0.0405 H         1 <0>         0.1438
     48 H12        -8.8631   -5.6656    0.2140 H         1 <0>         0.1337
     49 H13        -4.7949   -8.4759    0.1926 H         1 <0>         0.1256
     50 H14        -5.0761  -10.2837    0.3322 H         1 <0>         0.3968
     51 H15        -7.0770  -12.5530    0.4149 H         1 <0>         0.1379
     52 H16        -4.3767  -12.2680    1.9847 H         1 <0>         0.0959
     53 H17        -5.4733  -13.7508    1.9736 H         1 <0>         0.1024
     54 H18        -5.1838  -13.9461   -0.5388 H         1 <0>         0.1038
     55 H19        -4.0872  -12.4633   -0.5277 H         1 <0>         0.0963
     56 H20       -10.0848   -9.5511    1.8884 H         1 <0>         0.0627
     57 H21        -9.3433   -8.0487    2.4984 H         1 <0>         0.0610
     58 H22       -11.8999   -8.1240    2.6215 H         1 <0>         0.0681
     59 H23       -11.2270   -6.7242    1.7459 H         1 <0>         0.0481
     60 H24       -12.0930   -8.4131   -1.5651 H         1 <0>         0.0683
     61 H25       -11.3516   -6.9107   -0.9551 H         1 <0>         0.0474
     62 H26        -9.5404   -8.3293   -1.6882 H         1 <0>         0.0608
     63 H27       -10.2121   -9.7324   -0.8170 H         1 <0>         0.0624
     64 H28       -14.3998   -6.9362    0.5379 H         1 <0>         0.1268
     65 H29       -16.6225   -7.9786    0.7115 H         1 <0>         0.1227
     66 H30       -16.8295  -10.4224    0.8989 H         1 <0>         0.1226
     67 H31       -14.8151  -11.8366    0.9132 H         1 <0>         0.1256
     68 H32       -13.0687  -12.6025    1.7694 H         1 <0>         0.0512
     69 H33       -13.1500  -12.7247   -0.0045 H         1 <0>         0.0512
     70 H34       -11.5843  -12.8813    0.8276 H         1 <0>         0.0977
@<TRIPOS>BOND
     1    1    2 1
     2    1   37 1
     3    1   38 1
     4    1   39 1
     5    2    3 1
     6    2   40 1
     7    2   41 1
     8    3    4 1
     9    4    5 2
    10    4    6 1
    11    6    7 1
    12    6   42 1
    13    6   43 1
    14    7    8 1
    15    7   44 1
    16    7   45 1
    17    8    9 2
    18    8   10 am
    19   10   11 1
    20   10   46 1
    21   11   16 ar
    22   11   12 ar
    23   12   13 ar
    24   12   47 1
    25   13   14 ar
    26   13   48 1
    27   14   15 ar
    28   14   23 1
    29   15   16 ar
    30   15   17 1
    31   16   49 1
    32   17   18 2
    33   17   19 am
    34   19   20 1
    35   19   50 1
    36   20   22 1
    37   20   21 1
    38   20   51 1
    39   21   22 1
    40   21   52 1
    41   21   53 1
    42   22   54 1
    43   22   55 1
    44   23   28 1
    45   23   24 1
    46   24   25 1
    47   24   56 1
    48   24   57 1
    49   25   26 1
    50   25   58 1
    51   25   59 1
    52   26   27 1
    53   26   29 1
    54   27   28 1
    55   27   60 1
    56   27   61 1
    57   28   62 1
    58   28   63 1
    59   29   34 ar
    60   29   30 ar
    61   30   31 ar
    62   30   64 1
    63   31   32 ar
    64   31   65 1
    65   32   33 ar
    66   32   66 1
    67   33   34 ar
    68   33   67 1
    69   34   35 1
    70   35   36 1
    71   36   68 1
    72   36   69 1
    73   36   70 1
@<TRIPOS>MOLECULE
ZINC41543649
   71    74     0     0     0
SMALL
USER_CHARGES

@<TRIPOS>ATOM
      1 C1         -0.4247    1.9758   -0.2239 C.3       1 <0>        -0.0811
      2 C2         -1.4306    1.1879    0.5751 C.2       1 <0>        -0.1125
      3 C3         -2.7650    1.3512    0.5752 C.2       1 <0>        -0.0113
      4 N1         -3.3258    0.4457    1.4284 N.pl3     1 <0>        -0.5505
      5 H1         -4.2765    0.3636    1.6023 H         1 <0>         0.4074
      6 C4         -2.3718   -0.3178    1.9947 C.2       1 <0>         0.0912
      7 C5         -1.1481    0.0865    1.5020 C.2       1 <0>        -0.2276
      8 C6          0.1723   -0.4721    1.8396 C.2       1 <0>         0.5362
      9 O1          1.1750   -0.0247    1.3136 O.2       1 <0>        -0.4755
     10 C7          0.2792   -1.5676    2.8097 C.2       1 <0>        -0.4804
     11 C8          0.4259   -1.4476    4.1489 C.2       1 <0>         0.2460
     12 C9          0.4929   -2.7943    4.7530 C.2       1 <0>         0.5149
     13 O2          0.6224   -3.0206    5.9398 O.2       1 <0>        -0.5256
     14 N2          0.3884   -3.7331    3.7950 N.am      1 <0>        -0.6146
     15 C10         0.2401   -3.0471    2.5060 C.3       1 <0>         0.2669
     16 H2         -0.7124   -3.3103    2.0461 H         1 <0>         0.0747
     17 C11         1.3784   -3.4185    1.5910 C.ar      1 <0>        -0.0061
     18 C12         2.6680   -3.4798    2.0849 C.ar      1 <0>        -0.2038
     19 C13         3.7183   -3.8207    1.2461 C.ar      1 <0>         0.1500
     20 C14         3.4729   -4.1015   -0.0927 C.ar      1 <0>         0.0239
     21 C15         2.1748   -4.0392   -0.5853 C.ar      1 <0>         0.1498
     22 C16         1.1294   -3.7025    0.2613 C.ar      1 <0>        -0.2274
     23 O3          1.9295   -4.3130   -1.8946 O.3       1 <0>        -0.3041
     24 C17         0.5894   -4.1301   -2.3557 C.3       1 <0>         0.0267
     25 O4          4.5010   -4.4360   -0.9193 O.3       1 <0>        -0.3106
     26 C18         4.8231   -5.8243   -1.0249 C.3       1 <0>         0.0370
     27 O5          4.9868   -3.8799    1.7328 O.3       1 <0>        -0.3036
     28 C19         5.1648   -3.5785    3.1183 C.3       1 <0>         0.0262
     29 C20         0.4127   -5.1832    4.0023 C.3       1 <0>         0.1147
     30 C21        -1.0128   -5.6895    4.2316 C.3       1 <0>        -0.0301
     31 N3         -0.9885   -7.1435    4.4394 N.4       1 <0>        -0.3900
     32 C22        -0.3349   -7.4650    5.7339 C.3       1 <0>        -0.0093
     33 C23        -0.8754   -8.8794    6.0624 C.3       1 <0>        -0.1440
     34 C24        -2.3402   -8.8120    5.5726 C.3       1 <0>        -0.1437
     35 C25        -2.3678   -7.6670    4.5432 C.3       1 <0>        -0.0074
     36 O6          0.4997   -0.2792    4.8279 O.3       1 <0>        -0.6474
     37 C26        -2.6016   -1.4254    2.9904 C.3       1 <0>        -0.0908
     38 C27        -3.5207    2.3716   -0.2364 C.3       1 <0>        -0.0792
     39 H3         -0.2691    1.4935   -1.1889 H         1 <0>         0.0594
     40 H4         -0.7972    2.9883   -0.3796 H         1 <0>         0.0546
     41 H5          0.5197    2.0156    0.3189 H         1 <0>         0.0764
     42 H6          2.8579   -3.2615    3.1254 H         1 <0>         0.1302
     43 H7          0.1198   -3.6582   -0.1197 H         1 <0>         0.1308
     44 H8          0.5235   -4.4185   -3.4048 H         1 <0>         0.1005
     45 H9         -0.0857   -4.7498   -1.7654 H         1 <0>         0.0517
     46 H10         0.3081   -3.0825   -2.2485 H         1 <0>         0.0603
     47 H11         5.0996   -6.2088   -0.0431 H         1 <0>         0.0405
     48 H12         3.9572   -6.3708   -1.3985 H         1 <0>         0.0405
     49 H13         5.6583   -5.9521   -1.7135 H         1 <0>         0.0903
     50 H14         6.2206   -3.6624    3.3757 H         1 <0>         0.1022
     51 H15         4.8223   -2.5628    3.3161 H         1 <0>         0.0632
     52 H16         4.5872   -4.2803    3.7199 H         1 <0>         0.0505
     53 H17         0.8336   -5.6691    3.1220 H         1 <0>         0.0957
     54 H18         1.0253   -5.4155    4.8734 H         1 <0>         0.0969
     55 H19        -1.4338   -5.2037    5.1118 H         1 <0>         0.1340
     56 H20        -1.6254   -5.4572    3.3605 H         1 <0>         0.1324
     57 H21         0.7493   -7.4836    5.6233 H         1 <0>         0.1358
     58 H22        -0.6320   -6.7515    6.5025 H         1 <0>         0.1369
     59 H23        -0.3203   -9.6412    5.5150 H         1 <0>         0.0964
     60 H24        -0.8357   -9.0680    7.1352 H         1 <0>         0.1147
     61 H25        -2.6248   -9.7523    5.1004 H         1 <0>         0.1026
     62 H26        -3.0075   -8.5886    6.4050 H         1 <0>         0.1021
     63 H27        -3.0396   -6.8787    4.8826 H         1 <0>         0.1301
     64 H28        -2.6950   -8.0460    3.5750 H         1 <0>         0.1306
     65 H29        -2.6298   -2.3823    2.4693 H         1 <0>         0.0639
     66 H30        -1.7913   -1.4324    3.7195 H         1 <0>         0.1043
     67 H31        -3.5498   -1.2626    3.5027 H         1 <0>         0.0539
     68 H32        -3.7855    1.9432   -1.2031 H         1 <0>         0.0665
     69 H33        -4.4283    2.6585    0.2947 H         1 <0>         0.0592
     70 H34        -2.8949    3.2511   -0.3879 H         1 <0>         0.0791
     71 H35        -0.5008   -7.5958    3.6806 H         1 <0>         0.4250
@<TRIPOS>BOND
     1    1    2 1
     2    1   39 1
     3    1   40 1
     4    1   41 1
     5    2    7 1
     6    2    3 2
     7    3    4 1
     8    3   38 1
     9    4    5 1
    10    4    6 1
    11    6    7 2
    12    6   37 1
    13    7    8 1
    14    8    9 2
    15    8   10 1
    16   10   15 1
    17   10   11 2
    18   11   12 1
    19   11   36 1
    20   12   13 2
    21   12   14 am
    22   14   15 1
    23   14   29 1
    24   15   16 1
    25   15   17 1
    26   17   22 ar
    27   17   18 ar
    28   18   19 ar
    29   18   42 1
    30   19   20 ar
    31   19   27 1
    32   20   21 ar
    33   20   25 1
    34   21   22 ar
    35   21   23 1
    36   22   43 1
    37   23   24 1
    38   24   44 1
    39   24   45 1
    40   24   46 1
    41   25   26 1
    42   26   47 1
    43   26   48 1
    44   26   49 1
    45   27   28 1
    46   28   50 1
    47   28   51 1
    48   28   52 1
    49   29   30 1
    50   29   53 1
    51   29   54 1
    52   30   31 1
    53   30   55 1
    54   30   56 1
    55   31   35 1
    56   31   32 1
    57   31   71 1
    58   32   33 1
    59   32   57 1
    60   32   58 1
    61   33   34 1
    62   33   59 1
    63   33   60 1
    64   34   35 1
    65   34   61 1
    66   34   62 1
    67   35   63 1
    68   35   64 1
    69   37   65 1
    70   37   66 1
    71   37   67 1
    72   38   68 1
    73   38   69 1
    74   38   70 1
@<TRIPOS>MOLECULE
ZINC13189484
   54    55     0     0     0
SMALL
USER_CHARGES
2-[2-[[3-ethoxycarbonyl-5-(2-methoxyethoxycarbonyl)-4-methyl-2-thienyl]amino]-2-oxo-ethyl]sulfanylbenzoic acid
@<TRIPOS>ATOM
      1 C1          0.6154   10.6402    2.5662 C.3       1 <0>        -0.1534
      2 C2          0.1075   10.3490    1.1527 C.3       1 <0>         0.0577
      3 O1         -1.1378    9.6062    1.2293 O.3       1 <0>        -0.3487
      4 C3         -1.7215    9.2678    0.0619 C.2       1 <0>         0.5365
      5 O2         -1.2035    9.5852   -0.9914 O.2       1 <0>        -0.4906
      6 C4         -2.9820    8.5166    0.0625 C.2       1 <0>        -0.2395
      7 C5         -4.2051    9.1689    0.0711 C.2       1 <0>         0.0386
      8 C6         -5.3368    8.3980    0.0716 C.2       1 <0>        -0.3040
      9 S1         -4.6820    6.7399    0.0532 S.3       1 <0>         0.3524
     10 C7         -2.9903    7.1173    0.0549 C.2       1 <0>         0.1125
     11 N1         -1.9153    6.2505    0.0451 N.am      1 <0>        -0.6146
     12 C8         -2.1234    4.9189    0.0389 C.2       1 <0>         0.5331
     13 O3         -3.2546    4.4820    0.0419 O.2       1 <0>        -0.4626
     14 C9         -0.9503    3.9730    0.0282 C.3       1 <0>        -0.2301
     15 S2         -1.5519    2.2659    0.0217 S.3       1 <0>         0.1088
     16 C10        -0.0170    1.4007    0.0097 C.ar      1 <0>        -0.0916
     17 C11         1.1823    2.1044    0.0021 C.ar      1 <0>        -0.1564
     18 C12         2.3820    1.4246   -0.0135 C.ar      1 <0>        -0.1033
     19 C13         2.4041    0.0381   -0.0207 C.ar      1 <0>        -0.1468
     20 C14         1.2274   -0.6772   -0.0133 C.ar      1 <0>        -0.0573
     21 C15         0.0021   -0.0041    0.0020 C.ar      1 <0>        -0.1026
     22 C16        -1.2600   -0.7624    0.0095 C.2       1 <0>         0.4841
     23 O4         -2.3229   -0.1732    0.0224 O.co2     1 <0>        -0.5936
     24 C17        -6.7346    8.8278    0.0797 C.2       1 <0>         0.5646
     25 O5         -7.0063   10.0136    0.0872 O.2       1 <0>        -0.5009
     26 O6         -7.7229    7.9093    0.0787 O.3       1 <0>        -0.3376
     27 C18        -9.0649    8.4002    0.0869 C.3       1 <0>         0.0706
     28 C19       -10.0394    7.2207    0.0845 C.3       1 <0>         0.0604
     29 O7         -9.8988    6.4842    1.3010 O.3       1 <0>        -0.3848
     30 C20       -10.7690    5.3551    1.4008 C.3       1 <0>         0.0305
     31 C21        -4.2865   10.6736    0.0801 C.3       1 <0>        -0.1165
     32 H1          1.5502   11.1979    2.5087 H         1 <0>         0.0810
     33 H2         -0.1267   11.2296    3.1047 H         1 <0>         0.0679
     34 H3          0.7846    9.7007    3.0922 H         1 <0>         0.0680
     35 H4          0.8496    9.7596    0.6141 H         1 <0>         0.0715
     36 H5         -0.0617   11.2886    0.6266 H         1 <0>         0.0720
     37 H6         -1.0105    6.6000    0.0427 H         1 <0>         0.4228
     38 H7         -0.3407    4.1401    0.9162 H         1 <0>         0.1173
     39 H8         -0.3492    4.1497   -0.8637 H         1 <0>         0.1171
     40 H9          1.1742    3.1843    0.0076 H         1 <0>         0.1170
     41 H10         3.3107    1.9759   -0.0198 H         1 <0>         0.1168
     42 H11         3.3496   -0.4837   -0.0325 H         1 <0>         0.1187
     43 H12         1.2511   -1.7569   -0.0197 H         1 <0>         0.1352
     44 H13        -9.2259    9.0027    0.9809 H         1 <0>         0.0793
     45 H14        -9.2332    9.0124   -0.7991 H         1 <0>         0.0862
     46 H15       -11.0604    7.5932    0.0012 H         1 <0>         0.0737
     47 H16        -9.8199    6.5698   -0.7617 H         1 <0>         0.0646
     48 H17       -10.6010    4.8498    2.3518 H         1 <0>         0.0890
     49 H18       -11.8052    5.6889    1.3447 H         1 <0>         0.0402
     50 H19       -10.5647    4.6655    0.5818 H         1 <0>         0.0455
     51 H20        -4.3102   11.0424   -0.9454 H         1 <0>         0.0833
     52 H21        -5.1928   10.9854    0.5993 H         1 <0>         0.0985
     53 H22        -3.4154   11.0815    0.5929 H         1 <0>         0.0637
     54 O8         -1.2365   -2.1100    0.0020 O.co2     1 <0>        -0.7441
@<TRIPOS>BOND
     1    1    2 1
     2    1   32 1
     3    1   33 1
     4    1   34 1
     5    2    3 1
     6    2   35 1
     7    2   36 1
     8    3    4 1
     9    4    5 2
    10    4    6 1
    11    6   10 2
    12    6    7 1
    13    7    8 2
    14    7   31 1
    15    8    9 1
    16    8   24 1
    17    9   10 1
    18   10   11 1
    19   11   12 am
    20   11   37 1
    21   12   13 2
    22   12   14 1
    23   14   15 1
    24   14   38 1
    25   14   39 1
    26   15   16 1
    27   16   21 ar
    28   16   17 ar
    29   17   18 ar
    30   17   40 1
    31   18   19 ar
    32   18   41 1
    33   19   20 ar
    34   19   42 1
    35   20   21 ar
    36   20   43 1
    37   21   22 1
    38   22   23 2
    39   22   54 1
    40   24   25 2
    41   24   26 1
    42   26   27 1
    43   27   28 1
    44   27   44 1
    45   27   45 1
    46   28   29 1
    47   28   46 1
    48   28   47 1
    49   29   30 1
    50   30   48 1
    51   30   49 1
    52   30   50 1
    53   31   51 1
    54   31   52 1
    55   31   53 1
@<TRIPOS>MOLECULE
ZINC22698163
   65    68     0     0     0
SMALL
USER_CHARGES
ethyl 4-[(S)-[1-(2-furylmethyl)-4-hydroxy-6-methyl-2-oxo-3-pyridyl]-(2-methoxyphenyl)methyl]piperazine-1-carboxylate
@<TRIPOS>ATOM
      1 C1         -2.0674   -3.9618   -1.8885 C.3       1 <0>        -0.1537
      2 C2         -0.6382   -3.4799   -2.1458 C.3       1 <0>         0.0801
      3 O1         -0.3701   -2.3056   -1.3350 O.3       1 <0>        -0.3712
      4 C3          0.8530   -1.7535   -1.4444 C.2       1 <0>         0.6483
      5 O2          1.6739   -2.2397   -2.1969 O.2       1 <0>        -0.5827
      6 N1          1.1669   -0.6616   -0.7194 N.am      1 <0>        -0.5877
      7 C4          2.4970   -0.0428   -0.8239 C.3       1 <0>         0.1339
      8 C5          2.3173    1.4563   -1.0856 C.3       1 <0>         0.0593
      9 N2          1.4450    2.0295   -0.0519 N.3       1 <0>        -0.5127
     10 C6          0.0996    1.4422   -0.1043 C.3       1 <0>         0.0335
     11 C7          0.1884   -0.0576    0.1977 C.3       1 <0>         0.1200
     12 C8          1.3854    3.4929   -0.1656 C.3       1 <0>         0.2487
     13 H1          0.9337    3.7421   -1.1372 H         1 <0>         0.0556
     14 C9          0.5463    4.0500    0.9554 C.ar      1 <0>        -0.0792
     15 C10         0.4373    3.3589    2.1468 C.ar      1 <0>        -0.0390
     16 C11        -0.3316    3.8699    3.1758 C.ar      1 <0>        -0.1774
     17 C12        -0.9938    5.0733    3.0155 C.ar      1 <0>        -0.0992
     18 C13        -0.8880    5.7680    1.8264 C.ar      1 <0>        -0.2276
     19 C14        -0.1127    5.2599    0.7940 C.ar      1 <0>         0.1285
     20 O3         -0.0026    5.9443   -0.3749 O.3       1 <0>        -0.2830
     21 C15        -0.7085    7.1831   -0.4704 C.3       1 <0>         0.0298
     22 C16         2.7787    4.0606   -0.0800 C.2       1 <0>        -0.4267
     23 C17         3.2521    4.9067   -1.0657 C.2       1 <0>         0.3286
     24 C18         4.5598    5.4198   -0.9548 C.2       1 <0>        -0.2535
     25 C19         5.3264    5.0808    0.1038 C.2       1 <0>         0.1360
     26 N3          4.8544    4.2482    1.0686 N.am      1 <0>        -0.5200
     27 C20         3.6088    3.7428    1.0013 C.2       1 <0>         0.5429
     28 O4          3.2038    3.0009    1.8828 O.2       1 <0>        -0.5787
     29 C21         5.7129    3.9005    2.2036 C.3       1 <0>         0.1775
     30 C22         5.5076    4.8994    3.3132 C.2       1 <0>        -0.0277
     31 C23         4.6003    4.8019    4.3015 C.2       1 <0>        -0.1773
     32 C24         4.7564    5.9473    5.1154 C.2       1 <0>        -0.2155
     33 C25         5.7443    6.6803    4.5712 C.2       1 <0>        -0.0494
     34 O5          6.1955    6.0407    3.4798 O.3       1 <0>        -0.1768
     35 C26         6.7241    5.6328    0.2167 C.3       1 <0>        -0.1228
     36 O6          2.4710    5.2370   -2.1218 O.3       1 <0>        -0.6853
     37 H2         -2.2705   -4.8514   -2.5027 H         1 <0>         0.0797
     38 H3         -2.7767   -3.1637   -2.1532 H         1 <0>         0.0666
     39 H4         -2.1824   -4.2167   -0.8246 H         1 <0>         0.0662
     40 H5          0.0711   -4.2780   -1.8811 H         1 <0>         0.0682
     41 H6         -0.5231   -3.2250   -3.2097 H         1 <0>         0.0684
     42 H7          3.0476   -0.1963    0.1159 H         1 <0>         0.0782
     43 H8          3.0521   -0.5046   -1.6537 H         1 <0>         0.0902
     44 H9          3.2980    1.9537   -1.0566 H         1 <0>         0.0947
     45 H10         1.8606    1.6036   -2.0754 H         1 <0>         0.0278
     46 H11        -0.5430    1.9305    0.6431 H         1 <0>         0.0883
     47 H12        -0.3266    1.5908   -1.1074 H         1 <0>         0.0272
     48 H13        -0.7940   -0.5293    0.0482 H         1 <0>         0.0861
     49 H14         0.5152   -0.2125    1.2365 H         1 <0>         0.0770
     50 H15         0.9534    2.4189    2.2744 H         1 <0>         0.1462
     51 H16        -0.4150    3.3285    4.1066 H         1 <0>         0.1094
     52 H17        -1.5938    5.4704    3.8209 H         1 <0>         0.1081
     53 H18        -1.4051    6.7080    1.7019 H         1 <0>         0.1145
     54 H19        -0.5342    7.6290   -1.4608 H         1 <0>         0.0941
     55 H20        -0.3496    7.8707    0.3096 H         1 <0>         0.0451
     56 H21        -1.7850    7.0032   -0.3335 H         1 <0>         0.0438
     57 H22         4.9480    6.0819   -1.7146 H         1 <0>         0.1168
     58 H23         5.4544    2.8939    2.5640 H         1 <0>         0.1215
     59 H24         6.7658    3.9170    1.8855 H         1 <0>         0.0928
     60 H25         3.8903    4.0010    4.4467 H         1 <0>         0.1517
     61 H26         4.1886    6.1894    6.0016 H         1 <0>         0.1430
     62 H27         6.1124    7.6231    4.9481 H         1 <0>         0.1971
     63 H28         7.1955    5.2523    1.1348 H         1 <0>         0.0692
     64 H29         6.6825    6.7314    0.2540 H         1 <0>         0.0760
     65 H30         7.3144    5.3176   -0.6563 H         1 <0>         0.0767
@<TRIPOS>BOND
     1    1    2 1
     2    1   37 1
     3    1   38 1
     4    1   39 1
     5    2    3 1
     6    2   40 1
     7    2   41 1
     8    3    4 1
     9    4    5 2
    10    4    6 am
    11    6   11 1
    12    6    7 1
    13    7    8 1
    14    7   42 1
    15    7   43 1
    16    8    9 1
    17    8   44 1
    18    8   45 1
    19    9   10 1
    20    9   12 1
    21   10   11 1
    22   10   46 1
    23   10   47 1
    24   11   48 1
    25   11   49 1
    26   12   13 1
    27   12   14 1
    28   12   22 1
    29   14   19 ar
    30   14   15 ar
    31   15   16 ar
    32   15   50 1
    33   16   17 ar
    34   16   51 1
    35   17   18 ar
    36   17   52 1
    37   18   19 ar
    38   18   53 1
    39   19   20 1
    40   20   21 1
    41   21   54 1
    42   21   55 1
    43   21   56 1
    44   22   27 1
    45   22   23 2
    46   23   24 1
    47   23   36 1
    48   24   25 2
    49   24   57 1
    50   25   26 1
    51   25   35 1
    52   26   27 am
    53   26   29 1
    54   27   28 2
    55   29   30 1
    56   29   58 1
    57   29   59 1
    58   30   34 1
    59   30   31 2
    60   31   32 1
    61   31   60 1
    62   32   33 2
    63   32   61 1
    64   33   34 1
    65   33   62 1
    66   35   63 1
    67   35   64 1
    68   35   65 1
@<TRIPOS>MOLECULE
ZINC33814194
   67    71     0     0     0
SMALL
USER_CHARGES
(4E,5R)-5-(4-benzyloxy-3-methoxy-phenyl)-4-[hydroxy-(2-methylimidazo[1,2-a]pyridin-3-yl)methylene]-1-(2-methoxyethyl)pyrrolidine-2,3-dione
@<TRIPOS>ATOM
      1 C1          6.3985   -2.8028    3.1801 C.3       1 <0>        -0.0672
      2 C2          5.6457   -1.8397    4.0614 C.2       1 <0>         0.1154
      3 C3          4.4766   -1.1645    3.7215 C.2       1 <0>        -0.0436
      4 N1          4.1417   -0.3899    4.8190 N.pl3     1 <0>        -0.3311
      5 C4          3.1076    0.4587    5.0602 C.2       1 <0>         0.0770
      6 C5          3.0057    1.1017    6.2470 C.2       1 <0>        -0.1590
      7 C6          3.9663    0.8913    7.2447 C.2       1 <0>        -0.1135
      8 C7          5.0035    0.0360    7.0122 C.2       1 <0>        -0.0801
      9 C8          5.0914   -0.6211    5.7735 C.2       1 <0>         0.2068
     10 N2          5.9804   -1.4903    5.2902 N.2       1 <0>        -0.4938
     11 C9          3.7768   -1.2481    2.5012 C.2       1 <0>         0.4228
     12 C10         4.3258   -0.7002    1.3451 C.2       1 <0>        -0.4837
     13 C11         3.7150   -0.7009   -0.0372 C.3       1 <0>         0.2688
     14 H1          3.5401   -1.7208   -0.4102 H         1 <0>         0.0710
     15 N3          4.6648   -0.0098   -0.9146 N.am      1 <0>        -0.6001
     16 C12         5.7267    0.3736   -0.1856 C.2       1 <0>         0.4823
     17 O1          6.6902    0.9715   -0.6205 O.2       1 <0>        -0.5172
     18 C13         5.5497   -0.0400    1.2294 C.2       1 <0>         0.3703
     19 O2          6.3403    0.1618    2.1365 O.3       1 <0>        -0.4920
     20 C14         4.4858    0.2242   -2.3496 C.3       1 <0>         0.1349
     21 C15         3.7738    1.5614   -2.5634 C.3       1 <0>         0.0247
     22 O3          4.6122    2.6255   -2.1085 O.3       1 <0>        -0.3695
     23 C16         4.0381    3.9249   -2.2639 C.3       1 <0>         0.0298
     24 C17         2.3989    0.0331   -0.0207 C.ar      1 <0>        -0.0609
     25 C18         2.3801    1.4154   -0.0126 C.ar      1 <0>        -0.0983
     26 C19         1.1755    2.0934    0.0021 C.ar      1 <0>        -0.1852
     27 C20        -0.0168    1.3873    0.0097 C.ar      1 <0>         0.0880
     28 C21         0.0021   -0.0041    0.0020 C.ar      1 <0>         0.0931
     29 C22         1.2130   -0.6774   -0.0132 C.ar      1 <0>        -0.1295
     30 O4         -1.1654   -0.7015    0.0090 O.3       1 <0>        -0.3112
     31 C23        -1.0695   -2.1272    0.0004 C.3       1 <0>         0.0241
     32 O5         -1.2028    2.0527    0.0189 O.3       1 <0>        -0.3001
     33 C24        -1.1456    3.4806    0.0264 C.3       1 <0>         0.0986
     34 C25        -2.5451    4.0394    0.0360 C.ar      1 <0>        -0.0881
     35 C26        -3.1905    4.3075   -1.1566 C.ar      1 <0>        -0.0959
     36 C27        -4.4763    4.8151   -1.1478 C.ar      1 <0>        -0.1247
     37 C28        -5.1125    5.0649    0.0538 C.ar      1 <0>        -0.1142
     38 C29        -4.4649    4.8021    1.2464 C.ar      1 <0>        -0.1238
     39 C30        -3.1813    4.2891    1.2376 C.ar      1 <0>        -0.0948
     40 O6          2.5720   -1.8605    2.4532 O.2       1 <0>        -0.6290
     41 H2          5.8818   -2.8958    2.2135 H         1 <0>         0.0737
     42 H3          6.4437   -3.7876    3.6680 H         1 <0>         0.0670
     43 H4          7.4195   -2.4279    3.0156 H         1 <0>         0.0760
     44 H5          2.3631    0.6255    4.2958 H         1 <0>         0.1568
     45 H6          2.1824    1.7775    6.4251 H         1 <0>         0.1443
     46 H7          3.8861    1.4029    8.1924 H         1 <0>         0.1359
     47 H8          5.7505   -0.1341    7.7734 H         1 <0>         0.1446
     48 H9          5.4689    0.2493   -2.8424 H         1 <0>         0.0872
     49 H10         3.8802   -0.5867   -2.7806 H         1 <0>         0.0915
     50 H11         3.5594    1.6955   -3.6339 H         1 <0>         0.0498
     51 H12         2.8310    1.5695   -1.9968 H         1 <0>         0.0716
     52 H13         4.7424    4.6837   -1.8922 H         1 <0>         0.0826
     53 H14         3.1008    3.9825   -1.6910 H         1 <0>         0.0371
     54 H15         3.8292    4.1086   -3.3282 H         1 <0>         0.0356
     55 H16         3.3087    1.9669   -0.0185 H         1 <0>         0.1238
     56 H17         1.1636    3.1733    0.0080 H         1 <0>         0.1247
     57 H18         1.2304   -1.7572   -0.0195 H         1 <0>         0.1365
     58 H19        -2.0796   -2.5627    0.0074 H         1 <0>         0.0938
     59 H20        -0.5192   -2.4630    0.8917 H         1 <0>         0.0627
     60 H21        -0.5358   -2.4533   -0.9045 H         1 <0>         0.0512
     61 H22        -0.6086    3.8213    0.9239 H         1 <0>         0.0687
     62 H23        -0.6170    3.8311   -0.8723 H         1 <0>         0.0671
     63 H24        -2.6918    4.1165   -2.0953 H         1 <0>         0.1233
     64 H25        -4.9823    5.0200   -2.0796 H         1 <0>         0.1232
     65 H26        -6.1156    5.4650    0.0607 H         1 <0>         0.1219
     66 H27        -4.9620    4.9973    2.1852 H         1 <0>         0.1237
     67 H28        -2.6754    4.0839    2.1694 H         1 <0>         0.1244
@<TRIPOS>BOND
     1    1    2 1
     2    1   41 1
     3    1   42 1
     4    1   43 1
     5    2   10 1
     6    2    3 2
     7    3    4 1
     8    3   11 1
     9    4    9 1
    10    4    5 1
    11    5    6 2
    12    5   44 1
    13    6    7 1
    14    6   45 1
    15    7    8 2
    16    7   46 1
    17    8    9 1
    18    8   47 1
    19    9   10 2
    20   11   12 1
    21   11   40 2
    22   12   18 2
    23   12   13 1
    24   13   14 1
    25   13   15 1
    26   13   24 1
    27   15   16 am
    28   15   20 1
    29   16   17 2
    30   16   18 1
    31   18   19 1
    32   20   21 1
    33   20   48 1
    34   20   49 1
    35   21   22 1
    36   21   50 1
    37   21   51 1
    38   22   23 1
    39   23   52 1
    40   23   53 1
    41   23   54 1
    42   24   29 ar
    43   24   25 ar
    44   25   26 ar
    45   25   55 1
    46   26   27 ar
    47   26   56 1
    48   27   28 ar
    49   27   32 1
    50   28   29 ar
    51   28   30 1
    52   29   57 1
    53   30   31 1
    54   31   58 1
    55   31   59 1
    56   31   60 1
    57   32   33 1
    58   33   34 1
    59   33   61 1
    60   33   62 1
    61   34   39 ar
    62   34   35 ar
    63   35   36 ar
    64   35   63 1
    65   36   37 ar
    66   36   64 1
    67   37   38 ar
    68   37   65 1
    69   38   39 ar
    70   38   66 1
    71   39   67 1
@<TRIPOS>MOLECULE
ZINC35420614
   60    63     0     0     0
SMALL
USER_CHARGES

@<TRIPOS>ATOM
      1 C1         -2.5134    3.2829   -0.1040 C.3       1 <0>        -0.1521
      2 C2         -2.0898    1.8266    0.0973 C.3       1 <0>         0.0630
      3 O1         -3.2525    1.0032    0.2075 O.3       1 <0>        -0.3498
      4 C3         -3.0520   -0.3186    0.3897 C.2       1 <0>         0.5715
      5 O2         -1.9197   -0.7591    0.4532 O.2       1 <0>        -0.5045
      6 C4         -4.1950   -1.2212    0.5109 C.2       1 <0>        -0.3391
      7 C5         -4.2232   -2.5964    0.7056 C.2       1 <0>         0.2175
      8 N1         -5.4071   -3.1487    0.7769 N.2       1 <0>        -0.5565
      9 C6         -6.5114   -2.4315    0.6688 C.2       1 <0>         0.3383
     10 S1         -5.9434   -0.8615    0.4576 S.3       1 <0>         0.1949
     11 N2         -7.8219   -2.8666    0.7220 N.am      1 <0>        -0.5054
     12 C7         -9.0174   -2.0255    0.5899 C.3       1 <0>         0.2485
     13 H1         -9.0404   -1.2792    1.3839 H         1 <0>         0.0939
     14 C8        -10.2016   -2.9554    0.7163 C.2       1 <0>        -0.4693
     15 C9         -9.7025   -4.1997    0.9019 C.2       1 <0>         0.2855
     16 C10        -8.2280   -4.1371    0.8984 C.2       1 <0>         0.5058
     17 O3         -7.4894   -5.0920    1.0369 O.2       1 <0>        -0.4563
     18 O4        -10.4391   -5.3243    1.0607 O.3       1 <0>        -0.5891
     19 C11       -11.6193   -2.5815    0.6511 C.2       1 <0>         0.4502
     20 O5        -12.4784   -3.4456    0.6610 O.2       1 <0>        -0.4845
     21 C12       -12.0013   -1.1706    0.5741 C.2       1 <0>        -0.1823
     22 C13       -13.3068   -0.8248    0.5482 C.2       1 <0>        -0.0741
     23 C14       -13.6927    0.5941    0.5882 C.ar      1 <0>        -0.0528
     24 C15       -12.7123    1.5912    0.5409 C.ar      1 <0>        -0.1087
     25 C16       -13.0823    2.9187    0.5789 C.ar      1 <0>        -0.1199
     26 C17       -14.4195    3.2662    0.6636 C.ar      1 <0>        -0.1236
     27 C18       -15.3955    2.2858    0.7113 C.ar      1 <0>        -0.1222
     28 C19       -15.0424    0.9538    0.6679 C.ar      1 <0>        -0.1063
     29 C20        -9.0292   -1.3494   -0.7569 C.ar      1 <0>        -0.0568
     30 C21        -9.2960    0.0042   -0.8468 C.ar      1 <0>        -0.1318
     31 C22        -9.3080    0.6291   -2.0798 C.ar      1 <0>        -0.1006
     32 C23        -9.0517   -0.1013   -3.2292 C.ar      1 <0>         0.0732
     33 C24        -8.7827   -1.4635   -3.1387 C.ar      1 <0>         0.1071
     34 C25        -8.7675   -2.0828   -1.8991 C.ar      1 <0>        -0.1656
     35 O6         -8.5305   -2.1846   -4.2638 O.3       1 <0>        -0.3088
     36 C26        -8.3685   -3.5958   -4.1073 C.3       1 <0>         0.0240
     37 O7         -9.0635    0.5119   -4.4430 O.3       1 <0>        -0.4862
     38 C27        -2.9591   -3.4078    0.8276 C.3       1 <0>        -0.0915
     39 H2         -1.6265    3.9110   -0.1881 H         1 <0>         0.0786
     40 H3         -3.1055    3.3664   -1.0154 H         1 <0>         0.0670
     41 H4         -3.1100    3.6089    0.7480 H         1 <0>         0.0671
     42 H5         -1.4932    1.5006   -0.7548 H         1 <0>         0.0677
     43 H6         -1.4977    1.7431    1.0086 H         1 <0>         0.0679
     44 H7        -11.2394   -0.4060    0.5379 H         1 <0>         0.1216
     45 H8        -14.0672   -1.5900    0.4981 H         1 <0>         0.1305
     46 H9        -11.6685    1.3216    0.4752 H         1 <0>         0.1264
     47 H10       -12.3267    3.6896    0.5429 H         1 <0>         0.1222
     48 H11       -14.7028    4.3080    0.6930 H         1 <0>         0.1187
     49 H12       -16.4366    2.5651    0.7780 H         1 <0>         0.1207
     50 H13       -15.8054    0.1901    0.7000 H         1 <0>         0.1249
     51 H14        -9.4959    0.5745    0.0483 H         1 <0>         0.1310
     52 H15        -9.5174    1.6864   -2.1474 H         1 <0>         0.1373
     53 H16        -8.5553   -3.1392   -1.8258 H         1 <0>         0.1274
     54 H17        -7.5648   -3.7927   -3.3977 H         1 <0>         0.0531
     55 H18        -9.2966   -4.0289   -3.7344 H         1 <0>         0.0605
     56 H19        -8.1204   -4.0420   -5.0703 H         1 <0>         0.1007
     57 H20        -8.2050    0.8650   -4.7136 H         1 <0>         0.3822
     58 H21        -2.6600   -3.4592    1.8745 H         1 <0>         0.0848
     59 H22        -3.1361   -4.4150    0.4504 H         1 <0>         0.0799
     60 H23        -2.1670   -2.9360    0.2461 H         1 <0>         0.0942
@<TRIPOS>BOND
     1    1    2 1
     2    1   39 1
     3    1   40 1
     4    1   41 1
     5    2    3 1
     6    2   42 1
     7    2   43 1
     8    3    4 1
     9    4    5 2
    10    4    6 1
    11    6   10 1
    12    6    7 2
    13    7    8 1
    14    7   38 1
    15    8    9 2
    16    9   10 1
    17    9   11 1
    18   11   16 am
    19   11   12 1
    20   12   13 1
    21   12   14 1
    22   12   29 1
    23   14   15 2
    24   14   19 1
    25   15   16 1
    26   15   18 1
    27   16   17 2
    28   19   20 2
    29   19   21 1
    30   21   22 2
    31   21   44 1
    32   22   23 1
    33   22   45 1
    34   23   28 ar
    35   23   24 ar
    36   24   25 ar
    37   24   46 1
    38   25   26 ar
    39   25   47 1
    40   26   27 ar
    41   26   48 1
    42   27   28 ar
    43   27   49 1
    44   28   50 1
    45   29   34 ar
    46   29   30 ar
    47   30   31 ar
    48   30   51 1
    49   31   32 ar
    50   31   52 1
    51   32   33 ar
    52   32   37 1
    53   33   34 ar
    54   33   35 1
    55   34   53 1
    56   35   36 1
    57   36   54 1
    58   36   55 1
    59   36   56 1
    60   37   57 1
    61   38   58 1
    62   38   59 1
    63   38   60 1
@<TRIPOS>MOLECULE
ZINC40003761
   72    76     0     0     0
SMALL
USER_CHARGES

@<TRIPOS>ATOM
      1 C1          4.9916   -3.2959   -0.9552 C.3       1 <0>        -0.0995
      2 C2          3.5047   -3.2775   -0.7103 C.2       1 <0>        -0.0586
      3 C3          2.6360   -3.1815   -1.7575 C.2       1 <0>        -0.1026
      4 C4          1.2565   -3.1656   -1.5132 C.2       1 <0>        -0.1538
      5 C5          0.7907   -3.2452   -0.2450 C.2       1 <0>         0.0741
      6 N1          1.6502   -3.3407    0.8038 N.pl3     1 <0>        -0.3280
      7 C6          3.0005   -3.3650    0.5985 C.2       1 <0>         0.2345
      8 N2          3.6095   -3.4701    1.7800 N.2       1 <0>        -0.5028
      9 C7          2.7091   -3.5212    2.7461 C.2       1 <0>         0.1615
     10 C8          1.4486   -3.4324    2.1691 C.2       1 <0>        -0.1427
     11 C9          0.2028   -3.4495    2.8441 C.2       1 <0>         0.5495
     12 O1         -0.8364   -3.4053    2.2074 O.2       1 <0>        -0.4961
     13 C10         0.1631   -3.5204    4.3101 C.2       1 <0>        -0.4909
     14 C11         0.1058   -4.6428    5.0620 C.2       1 <0>         0.2562
     15 C12         0.0830   -4.2711    6.4896 C.2       1 <0>         0.5125
     16 O2          0.0329   -5.0583    7.4142 O.2       1 <0>        -0.5355
     17 N3          0.1258   -2.9324    6.6172 N.am      1 <0>        -0.6100
     18 C13         0.1850   -2.3535    5.2697 C.3       1 <0>         0.2703
     19 H1          1.1051   -1.7825    5.1449 H         1 <0>         0.0703
     20 C14        -1.0115   -1.4676    5.0361 C.ar      1 <0>        -0.1011
     21 C15        -2.2645   -1.8756    5.4546 C.ar      1 <0>        -0.0486
     22 C16        -3.3630   -1.0655    5.2412 C.ar      1 <0>        -0.1490
     23 C17        -3.2080    0.1584    4.6068 C.ar      1 <0>         0.1168
     24 C18        -1.9496    0.5657    4.1883 C.ar      1 <0>        -0.2081
     25 C19        -0.8535   -0.2457    4.4087 C.ar      1 <0>        -0.0763
     26 O3         -4.2872    0.9569    4.3953 O.3       1 <0>        -0.3152
     27 C20        -4.0530    2.2031    3.7363 C.3       1 <0>         0.0870
     28 C21        -5.3555    2.9468    3.5904 C.2       1 <0>        -0.1512
     29 C22        -5.4153    4.2247    3.8722 C.2       1 <0>        -0.1770
     30 C23         0.1201   -2.1855    7.8775 C.3       1 <0>         0.1394
     31 C24         1.5594   -1.9745    8.3518 C.3       1 <0>        -0.1336
     32 C25         1.5534   -1.1944    9.6679 C.3       1 <0>         0.0599
     33 N4          2.9353   -0.9918   10.1233 N.3       1 <0>        -0.5354
     34 C26         3.5636   -2.2706   10.4853 C.3       1 <0>         0.0133
     35 C27         5.0171   -2.0208   10.8959 C.3       1 <0>         0.0638
     36 O4          5.0481   -1.0787   11.9715 O.3       1 <0>        -0.3884
     37 C28         4.4451    0.1784   11.6534 C.3       1 <0>         0.0641
     38 C29         2.9857   -0.0492   11.2504 C.3       1 <0>         0.0173
     39 O5          0.0736   -5.9084    4.5806 O.3       1 <0>        -0.6624
     40 C30         3.0001   -3.6410    4.2199 C.3       1 <0>        -0.0838
     41 H2          5.3245   -4.3246   -1.0925 H         1 <0>         0.0738
     42 H3          5.2196   -2.7176   -1.8506 H         1 <0>         0.0689
     43 H4          5.5061   -2.8586   -0.0995 H         1 <0>         0.0773
     44 H5          3.0093   -3.1177   -2.7689 H         1 <0>         0.1403
     45 H6          0.5637   -3.0894   -2.3382 H         1 <0>         0.1503
     46 H7         -0.2741   -3.2324   -0.0646 H         1 <0>         0.1724
     47 H8         -2.3847   -2.8285    5.9485 H         1 <0>         0.1240
     48 H9         -4.3417   -1.3850    5.5677 H         1 <0>         0.1250
     49 H10        -1.8264    1.5181    3.6941 H         1 <0>         0.1204
     50 H11         0.1270    0.0729    4.0869 H         1 <0>         0.1192
     51 H12        -3.3575    2.8007    4.3256 H         1 <0>         0.0650
     52 H13        -3.6277    2.0182    2.7499 H         1 <0>         0.0703
     53 H14        -6.2398    2.4262    3.2534 H         1 <0>         0.1190
     54 H15        -6.3488    4.7577    3.7676 H         1 <0>         0.1062
     55 H16        -4.5311    4.7453    4.2091 H         1 <0>         0.0988
     56 H17        -0.3575   -1.2177    7.7241 H         1 <0>         0.0752
     57 H18        -0.4319   -2.7478    8.6306 H         1 <0>         0.0759
     58 H19         2.0369   -2.9422    8.5051 H         1 <0>         0.0690
     59 H20         2.1114   -1.4122    7.5986 H         1 <0>         0.0755
     60 H21         1.0758   -0.2266    9.5146 H         1 <0>         0.0765
     61 H22         1.0014   -1.7567   10.4211 H         1 <0>         0.0367
     62 H23         3.0221   -2.7194   11.3180 H         1 <0>         0.0426
     63 H24         3.5380   -2.9440    9.6285 H         1 <0>         0.0933
     64 H25         5.4701   -2.9578   11.2196 H         1 <0>         0.0978
     65 H26         5.5718   -1.6219   10.0466 H         1 <0>         0.0605
     66 H27         4.4843    0.8319   12.5249 H         1 <0>         0.0953
     67 H28         4.9831    0.6413   10.8261 H         1 <0>         0.0592
     68 H29         2.5383    0.8990   10.9522 H         1 <0>         0.0850
     69 H30         2.4350   -0.4624   12.0954 H         1 <0>         0.0412
     70 H31         2.9956   -2.6496    4.6729 H         1 <0>         0.0756
     71 H32         2.2367   -4.2596    4.6918 H         1 <0>         0.1027
     72 H33         3.9784   -4.1005    4.3609 H         1 <0>         0.0676
@<TRIPOS>BOND
     1    1    2 1
     2    1   41 1
     3    1   42 1
     4    1   43 1
     5    2    7 1
     6    2    3 2
     7    3    4 1
     8    3   44 1
     9    4    5 2
    10    4   45 1
    11    5    6 1
    12    5   46 1
    13    6   10 1
    14    6    7 1
    15    7    8 2
    16    8    9 1
    17    9   10 2
    18    9   40 1
    19   10   11 1
    20   11   12 2
    21   11   13 1
    22   13   18 1
    23   13   14 2
    24   14   15 1
    25   14   39 1
    26   15   16 2
    27   15   17 am
    28   17   18 1
    29   17   30 1
    30   18   19 1
    31   18   20 1
    32   20   25 ar
    33   20   21 ar
    34   21   22 ar
    35   21   47 1
    36   22   23 ar
    37   22   48 1
    38   23   24 ar
    39   23   26 1
    40   24   25 ar
    41   24   49 1
    42   25   50 1
    43   26   27 1
    44   27   28 1
    45   27   51 1
    46   27   52 1
    47   28   29 2
    48   28   53 1
    49   29   54 1
    50   29   55 1
    51   30   31 1
    52   30   56 1
    53   30   57 1
    54   31   32 1
    55   31   58 1
    56   31   59 1
    57   32   33 1
    58   32   60 1
    59   32   61 1
    60   33   38 1
    61   33   34 1
    62   34   35 1
    63   34   62 1
    64   34   63 1
    65   35   36 1
    66   35   64 1
    67   35   65 1
    68   36   37 1
    69   37   38 1
    70   37   66 1
    71   37   67 1
    72   38   68 1
    73   38   69 1
    74   40   70 1
    75   40   71 1
    76   40   72 1
@<TRIPOS>MOLECULE
ZINC09235297
   47    50     0     0     0
SMALL
USER_CHARGES
2-[4-[[3-[(6-chlorobenzo[1,3]dioxol-5-yl)methyl]-2,4-dioxo-thiazolidin-5-ylidene]methyl]-2-methoxy-phenoxy]acetic acid
@<TRIPOS>ATOM
      1 C1         -4.1319    4.6605   -2.3837 C.3       1 <0>         0.0284
      2 O1         -3.9951    6.0589   -2.1233 O.3       1 <0>        -0.2920
      3 C2         -2.8067    6.4785   -1.6124 C.ar      1 <0>         0.0792
      4 C3         -1.7974    5.5666   -1.3741 C.ar      1 <0>        -0.0974
      5 C4         -0.5767    6.0018   -0.8439 C.ar      1 <0>        -0.1292
      6 C5         -0.3831    7.3608   -0.5679 C.ar      1 <0>        -0.0654
      7 C6         -1.3941    8.2637   -0.8135 C.ar      1 <0>        -0.1994
      8 C7         -2.6058    7.8300   -1.3348 C.ar      1 <0>         0.1480
      9 O2         -3.5986    8.7256   -1.5755 O.3       1 <0>        -0.2698
     10 C8         -3.3260   10.0944   -1.2688 C.3       1 <0>         0.0141
     11 C9         -4.5336   10.9333   -1.5990 C.2       1 <0>         0.4690
     12 O3         -5.5259   10.4124   -2.0506 O.co2     1 <0>        -0.6100
     13 C10         0.4992    5.0369   -0.5837 C.2       1 <0>         0.1035
     14 C11         0.2244    3.8687    0.0502 C.2       1 <0>        -0.2245
     15 C12        -1.0699    3.3328    0.5165 C.2       1 <0>         0.5473
     16 O4         -2.1093    3.9465    0.3612 O.2       1 <0>        -0.4419
     17 N1         -1.0435    2.1494    1.1063 N.am      1 <0>        -0.5724
     18 C13         0.1112    1.4749    1.2809 C.2       1 <0>         0.5563
     19 O5          0.2806    0.3903    1.8048 O.2       1 <0>        -0.4175
     20 S1          1.3299    2.5557    0.5497 S.3       1 <0>        -0.0675
     21 C14        -2.2963    1.5600    1.5850 C.3       1 <0>         0.1366
     22 C15        -2.6191    0.3348    0.7690 C.ar      1 <0>        -0.1000
     23 C16        -2.4430   -0.9236    1.3144 C.ar      1 <0>        -0.0555
     24 C17        -2.7439   -2.0510    0.5683 C.ar      1 <0>         0.0350
     25 C18        -3.2136   -1.9142   -0.7361 C.ar      1 <0>         0.0563
     26 C19        -3.3825   -0.6512   -1.2788 C.ar      1 <0>        -0.0965
     27 C20        -3.0855    0.4712   -0.5260 C.ar      1 <0>        -0.0221
     28 Cl1        -3.2979    2.0533   -1.2083 Cl        1 <0>        -0.0253
     29 O6         -3.4283   -3.1583   -1.2550 O.3       1 <0>        -0.3024
     30 C21        -2.7001   -4.0616   -0.4024 C.3       1 <0>         0.2124
     31 O7         -2.6646   -3.3810    0.8660 O.3       1 <0>        -0.3026
     32 H1         -5.1244    4.4614   -2.7878 H         1 <0>         0.1010
     33 H2         -3.3766    4.3498   -3.1056 H         1 <0>         0.0474
     34 H3         -3.9988    4.1035   -1.4562 H         1 <0>         0.0523
     35 H4         -1.9504    4.5201   -1.5929 H         1 <0>         0.1340
     36 H5          0.5583    7.7010   -0.1624 H         1 <0>         0.1306
     37 H6         -1.2437    9.3117   -0.6003 H         1 <0>         0.1425
     38 H7         -3.0962   10.1902   -0.2077 H         1 <0>         0.0688
     39 H8         -2.4744   10.4359   -1.8573 H         1 <0>         0.0691
     40 H9          1.5091    5.2567   -0.8969 H         1 <0>         0.1557
     41 H10        -2.1893    1.2806    2.6331 H         1 <0>         0.1059
     42 H11        -3.1021    2.2870    1.4832 H         1 <0>         0.1294
     43 H12        -2.0749   -1.0273    2.3244 H         1 <0>         0.1496
     44 H13        -3.7465   -0.5423   -2.2898 H         1 <0>         0.1497
     45 H14        -1.6902   -4.2165   -0.7822 H         1 <0>         0.0882
     46 H15        -3.2242   -5.0130   -0.3120 H         1 <0>         0.1364
     47 O8         -4.5068   12.2591   -1.3914 O.co2     1 <0>        -0.7554
@<TRIPOS>BOND
     1    1    2 1
     2    1   32 1
     3    1   33 1
     4    1   34 1
     5    2    3 1
     6    3    8 ar
     7    3    4 ar
     8    4    5 ar
     9    4   35 1
    10    5    6 ar
    11    5   13 1
    12    6    7 ar
    13    6   36 1
    14    7    8 ar
    15    7   37 1
    16    8    9 1
    17    9   10 1
    18   10   11 1
    19   10   38 1
    20   10   39 1
    21   11   12 2
    22   11   47 1
    23   13   14 2
    24   13   40 1
    25   14   20 1
    26   14   15 1
    27   15   16 2
    28   15   17 am
    29   17   18 am
    30   17   21 1
    31   18   19 2
    32   18   20 1
    33   21   22 1
    34   21   41 1
    35   21   42 1
    36   22   27 ar
    37   22   23 ar
    38   23   24 ar
    39   23   43 1
    40   24   31 1
    41   24   25 ar
    42   25   26 ar
    43   25   29 1
    44   26   27 ar
    45   26   44 1
    46   27   28 1
    47   29   30 1
    48   30   31 1
    49   30   45 1
    50   30   46 1
@<TRIPOS>MOLECULE
ZINC20263729
   63    67     0     0     0
SMALL
USER_CHARGES
(5R)-4-(benzofuran-2-carbonyl)-5-(3,4-dimethoxyphenyl)-3-hydroxy-1-(2-morpholinoethyl)-5H-pyrrol-2-one
@<TRIPOS>ATOM
      1 C1         -8.4371    1.4062    2.7432 C.3       1 <0>         0.0263
      2 O1         -7.9270    2.7109    3.0254 O.3       1 <0>        -0.3096
      3 C2         -6.7164    2.7808    3.6409 C.ar      1 <0>         0.0909
      4 C3         -6.0346    1.6190    3.9659 C.ar      1 <0>        -0.1764
      5 C4         -4.8043    1.6917    4.5920 C.ar      1 <0>        -0.0957
      6 C5         -4.2514    2.9220    4.8956 C.ar      1 <0>        -0.0681
      7 C6         -4.9287    4.0847    4.5789 C.ar      1 <0>        -0.1391
      8 C7         -6.1597    4.0190    3.9462 C.ar      1 <0>         0.0923
      9 O2         -6.8249    5.1620    3.6292 O.3       1 <0>        -0.3105
     10 C8         -6.2532    6.3916    4.0801 C.3       1 <0>         0.0233
     11 C9         -2.9103    2.9955    5.5791 C.3       1 <0>         0.2574
     12 H1         -2.5364    1.9696    5.7123 H         1 <0>         0.0758
     13 C10        -3.0345    3.7321    6.8924 C.2       1 <0>        -0.4729
     14 C11        -2.2329    4.8190    6.8077 C.2       1 <0>         0.2851
     15 C12        -1.5719    4.8333    5.4869 C.2       1 <0>         0.5087
     16 O3         -0.7867    5.6803    5.1093 O.2       1 <0>        -0.5263
     17 N1         -1.9695    3.7716    4.7625 N.am      1 <0>        -0.6065
     18 C13        -1.5356    3.4447    3.4020 C.3       1 <0>         0.1353
     19 C14        -2.4822    4.0990    2.3937 C.3       1 <0>         0.0359
     20 N2         -2.0471    3.7712    1.0294 N.3       1 <0>        -0.5309
     21 C15        -1.7426    2.3384    0.9036 C.3       1 <0>         0.0079
     22 C16        -1.2383    2.0520   -0.5134 C.3       1 <0>         0.0630
     23 O4         -2.2196    2.4831   -1.4603 O.3       1 <0>        -0.3873
     24 C17        -2.5387    3.8740   -1.3659 C.3       1 <0>         0.0643
     25 C18        -3.0572    4.1787    0.0420 C.3       1 <0>         0.0185
     26 O5         -2.0601    5.7436    7.7810 O.3       1 <0>        -0.5991
     27 C19        -3.8642    3.3440    8.0382 C.2       1 <0>         0.4877
     28 O6         -3.9712    4.0918    8.9937 O.2       1 <0>        -0.4670
     29 C20        -4.5660    2.0536    8.0332 C.2       1 <0>         0.0111
     30 C21        -5.4605    1.6444    8.9739 C.2       1 <0>        -0.1693
     31 C22        -5.8995    0.3126    8.5623 C.ar      1 <0>        -0.1329
     32 C23        -6.7922   -0.6248    9.0894 C.ar      1 <0>        -0.0679
     33 C24        -6.9801   -1.8160    8.4475 C.ar      1 <0>        -0.1443
     34 C25        -6.2905   -2.1006    7.2764 C.ar      1 <0>        -0.0989
     35 C26        -5.4063   -1.1894    6.7399 C.ar      1 <0>        -0.1086
     36 C27        -5.1977    0.0290    7.3751 C.ar      1 <0>         0.0586
     37 O7         -4.4172    1.0920    7.0987 O.3       1 <0>        -0.1645
     38 H2         -9.4155    1.4942    2.2483 H         1 <0>         0.0964
     39 H3         -8.5505    0.8457    3.6829 H         1 <0>         0.0528
     40 H4         -7.7379    0.8744    2.0812 H         1 <0>         0.0515
     41 H5         -6.4643    0.6567    3.7298 H         1 <0>         0.1283
     42 H6         -4.2739    0.7855    4.8447 H         1 <0>         0.1230
     43 H7         -4.4964    5.0444    4.8209 H         1 <0>         0.1311
     44 H8         -6.8872    7.2307    3.7578 H         1 <0>         0.0986
     45 H9         -5.2467    6.5068    3.6516 H         1 <0>         0.0529
     46 H10        -6.1857    6.3837    5.1780 H         1 <0>         0.0590
     47 H11        -0.5140    3.8201    3.2428 H         1 <0>         0.0882
     48 H12        -1.5508    2.3534    3.2645 H         1 <0>         0.0771
     49 H13        -3.5038    3.7236    2.5529 H         1 <0>         0.0491
     50 H14        -2.4670    5.1903    2.5312 H         1 <0>         0.0794
     51 H15        -0.9672    2.0629    1.6336 H         1 <0>         0.0920
     52 H16        -2.6529    1.7517    1.0966 H         1 <0>         0.0445
     53 H17        -0.2975    2.5956   -0.6846 H         1 <0>         0.0598
     54 H18        -1.0641    0.9721   -0.6293 H         1 <0>         0.0971
     55 H19        -1.6365    4.4714   -1.5638 H         1 <0>         0.0597
     56 H20        -3.3133    4.1236   -2.1060 H         1 <0>         0.0969
     57 H21        -3.9893    3.6223    0.2200 H         1 <0>         0.0435
     58 H22        -3.2500    5.2574    0.1384 H         1 <0>         0.0855
     59 H23        -5.7826    2.1937    9.8463 H         1 <0>         0.1608
     60 H24        -7.3309   -0.4086   10.0001 H         1 <0>         0.1242
     61 H25        -7.6699   -2.5411    8.8534 H         1 <0>         0.1243
     62 H26        -6.4495   -3.0463    6.7796 H         1 <0>         0.1297
     63 H27        -4.8759   -1.4223    5.8285 H         1 <0>         0.1283
@<TRIPOS>BOND
     1    1    2 1
     2    1   38 1
     3    1   39 1
     4    1   40 1
     5    2    3 1
     6    3    8 ar
     7    3    4 ar
     8    4    5 ar
     9    4   41 1
    10    5    6 ar
    11    5   42 1
    12    6    7 ar
    13    6   11 1
    14    7    8 ar
    15    7   43 1
    16    8    9 1
    17    9   10 1
    18   10   44 1
    19   10   45 1
    20   10   46 1
    21   11   12 1
    22   11   17 1
    23   11   13 1
    24   13   14 2
    25   13   27 1
    26   14   15 1
    27   14   26 1
    28   15   16 2
    29   15   17 am
    30   17   18 1
    31   18   19 1
    32   18   47 1
    33   18   48 1
    34   19   20 1
    35   19   49 1
    36   19   50 1
    37   20   25 1
    38   20   21 1
    39   21   22 1
    40   21   51 1
    41   21   52 1
    42   22   23 1
    43   22   53 1
    44   22   54 1
    45   23   24 1
    46   24   25 1
    47   24   55 1
    48   24   56 1
    49   25   57 1
    50   25   58 1
    51   27   28 2
    52   27   29 1
    53   29   37 1
    54   29   30 2
    55   30   31 1
    56   30   59 1
    57   31   36 ar
    58   31   32 ar
    59   32   33 ar
    60   32   60 1
    61   33   34 ar
    62   33   61 1
    63   34   35 ar
    64   34   62 1
    65   35   36 ar
    66   35   63 1
    67   36   37 1
@<TRIPOS>MOLECULE
ZINC34934736
   62    64     0     0     0
SMALL
USER_CHARGES

@<TRIPOS>ATOM
      1 C1         -5.5873    0.7248   -4.8631 C.3       1 <0>        -0.1520
      2 C2         -5.3787   -0.7899   -4.8080 C.3       1 <0>         0.0551
      3 O1         -5.5140   -1.2407   -3.4587 O.3       1 <0>        -0.3172
      4 C3         -5.3568   -2.5718   -3.2342 C.ar      1 <0>         0.1108
      5 C4         -5.0721   -3.4253   -4.2923 C.ar      1 <0>        -0.1951
      6 C5         -4.9110   -4.7806   -4.0702 C.ar      1 <0>        -0.0993
      7 C6         -5.0325   -5.2944   -2.7954 C.ar      1 <0>        -0.1006
      8 C7         -5.3186   -4.4443   -1.7252 C.ar      1 <0>        -0.0972
      9 C8         -5.4749   -3.0754   -1.9503 C.ar      1 <0>        -0.1056
     10 C9         -5.4501   -4.9912   -0.3576 C.2       1 <0>         0.5052
     11 C10        -5.2833   -6.4286   -0.1240 C.2       1 <0>        -0.5072
     12 C11        -4.0025   -7.2197   -0.2518 C.3       1 <0>         0.2638
     13 H1         -3.6264   -7.1615   -1.2732 H         1 <0>         0.0719
     14 N1         -4.3435   -8.6075    0.0821 N.am      1 <0>        -0.6113
     15 C12        -5.6562   -8.6524    0.3736 C.2       1 <0>         0.5163
     16 O2         -6.2656   -9.6537    0.6931 O.2       1 <0>        -0.5166
     17 C13        -6.2460   -7.3022    0.2536 C.2       1 <0>         0.2671
     18 O3         -7.5421   -6.9898    0.4825 O.3       1 <0>        -0.6532
     19 C14        -3.4182   -9.7433    0.0952 C.3       1 <0>         0.1410
     20 C15        -2.8955   -9.9589    1.5169 C.3       1 <0>         0.0345
     21 O4         -3.9812  -10.3168    2.3744 O.3       1 <0>        -0.3647
     22 C16        -3.5816  -10.6796    3.6975 C.3       1 <0>         0.0300
     23 C17        -2.9703   -6.6936    0.7120 C.ar      1 <0>        -0.0008
     24 C18        -3.1692   -6.8233    2.0737 C.ar      1 <0>        -0.1896
     25 C19        -2.2220   -6.3402    2.9638 C.ar      1 <0>         0.1427
     26 C20        -1.0713   -5.7252    2.4851 C.ar      1 <0>         0.0193
     27 C21        -0.8748   -5.5972    1.1153 C.ar      1 <0>         0.1426
     28 C22        -1.8244   -6.0876    0.2317 C.ar      1 <0>        -0.2276
     29 O5          0.2495   -4.9962    0.6419 O.3       1 <0>        -0.3069
     30 C23         0.3379   -4.8069   -0.7718 C.3       1 <0>         0.0264
     31 O6         -0.1395   -5.2493    3.3554 O.3       1 <0>        -0.3121
     32 C24         0.8983   -6.1487    3.7506 C.3       1 <0>         0.0364
     33 O7         -2.4191   -6.4675    4.3034 O.3       1 <0>        -0.3070
     34 C25        -3.6820   -6.9847    4.7271 C.3       1 <0>         0.0222
     35 O8         -5.6968   -4.2481    0.5736 O.2       1 <0>        -0.4667
     36 H2         -5.4841    1.0686   -5.8922 H         1 <0>         0.0753
     37 H3         -6.5849    0.9677   -4.4972 H         1 <0>         0.0660
     38 H4         -4.8416    1.2172   -4.2390 H         1 <0>         0.0655
     39 H5         -6.1245   -1.2823   -5.4321 H         1 <0>         0.0596
     40 H6         -4.3811   -1.0328   -5.1739 H         1 <0>         0.0590
     41 H7         -4.9765   -3.0290   -5.2924 H         1 <0>         0.1235
     42 H8         -4.6897   -5.4390   -4.8971 H         1 <0>         0.1248
     43 H9         -4.9068   -6.3536   -2.6255 H         1 <0>         0.1361
     44 H10        -5.6915   -2.4121   -1.1260 H         1 <0>         0.1365
     45 H11        -3.9390  -10.6401   -0.2404 H         1 <0>         0.0843
     46 H12        -2.5814   -9.5379   -0.5723 H         1 <0>         0.0893
     47 H13        -2.1555  -10.7592    1.5144 H         1 <0>         0.0498
     48 H14        -2.4351   -9.0394    1.8781 H         1 <0>         0.0568
     49 H15        -4.4605  -10.9579    4.2790 H         1 <0>         0.0832
     50 H16        -2.8945  -11.5244    3.6507 H         1 <0>         0.0356
     51 H17        -3.0851   -9.8332    4.1720 H         1 <0>         0.0355
     52 H18        -4.0637   -7.3013    2.4449 H         1 <0>         0.1359
     53 H19        -1.6705   -5.9924   -0.8330 H         1 <0>         0.1326
     54 H20         0.2454   -5.7700   -1.2738 H         1 <0>         0.0551
     55 H21        -0.4649   -4.1471   -1.1009 H         1 <0>         0.0576
     56 H22         1.3005   -4.3592   -1.0190 H         1 <0>         0.0970
     57 H23         1.5715   -5.6445    4.4439 H         1 <0>         0.0865
     58 H24         0.4589   -7.0186    4.2387 H         1 <0>         0.0406
     59 H25         1.4561   -6.4690    2.8706 H         1 <0>         0.0406
     60 H26        -3.8025   -8.0013    4.3526 H         1 <0>         0.0567
     61 H27        -3.7251   -6.9913    5.8162 H         1 <0>         0.0985
     62 H28        -4.4819   -6.3562    4.3356 H         1 <0>         0.0636
@<TRIPOS>BOND
     1    1    2 1
     2    1   36 1
     3    1   37 1
     4    1   38 1
     5    2    3 1
     6    2   39 1
     7    2   40 1
     8    3    4 1
     9    4    9 ar
    10    4    5 ar
    11    5    6 ar
    12    5   41 1
    13    6    7 ar
    14    6   42 1
    15    7    8 ar
    16    7   43 1
    17    8    9 ar
    18    8   10 1
    19    9   44 1
    20   10   11 1
    21   10   35 2
    22   11   17 2
    23   11   12 1
    24   12   14 1
    25   12   23 1
    26   12   13 1
    27   14   19 1
    28   14   15 am
    29   15   16 2
    30   15   17 1
    31   17   18 1
    32   19   20 1
    33   19   45 1
    34   19   46 1
    35   20   21 1
    36   20   47 1
    37   20   48 1
    38   21   22 1
    39   22   49 1
    40   22   50 1
    41   22   51 1
    42   23   28 ar
    43   23   24 ar
    44   24   25 ar
    45   24   52 1
    46   25   26 ar
    47   25   33 1
    48   26   27 ar
    49   26   31 1
    50   27   28 ar
    51   27   29 1
    52   28   53 1
    53   29   30 1
    54   30   54 1
    55   30   55 1
    56   30   56 1
    57   31   32 1
    58   32   57 1
    59   32   58 1
    60   32   59 1
    61   33   34 1
    62   34   60 1
    63   34   61 1
    64   34   62 1
@<TRIPOS>MOLECULE
ZINC35057977
   65    68     0     0     0
SMALL
USER_CHARGES

@<TRIPOS>ATOM
      1 C1         -0.5639    1.4899    1.0093 C.3       1 <0>        -0.1645
      2 C2         -0.5435   -0.0170    1.0011 C.2       1 <0>         0.5202
      3 O1          0.0240   -0.6206    1.8868 O.2       1 <0>        -0.5214
      4 N1         -1.1558   -0.6938    0.0094 N.am      1 <0>        -0.7000
      5 C3         -1.1360   -2.1586    0.0013 C.3       1 <0>         0.1128
      6 H1         -0.2367   -2.5140    0.5044 H         1 <0>         0.1095
      7 C4         -2.3744   -2.6920    0.7277 C.3       1 <0>         0.0788
      8 H2         -2.3335   -3.7806    0.7654 H         1 <0>         0.0812
      9 C5         -3.6301   -2.2540   -0.0273 C.3       1 <0>         0.0672
     10 H3         -4.5099   -2.6860    0.4496 H         1 <0>         0.0801
     11 C6         -3.5502   -2.7329   -1.4805 C.3       1 <0>         0.0315
     12 H4         -3.5639   -3.8224   -1.5096 H         1 <0>         0.0893
     13 C7         -4.7600   -2.1798   -2.2446 C.3       1 <0>         0.0739
     14 O2         -4.7908   -0.7574   -2.0914 O.3       1 <0>        -0.3759
     15 C8         -4.8589   -0.3234   -0.7311 C.3       1 <0>         0.3242
     16 H5         -5.7767   -0.6963   -0.2765 H         1 <0>         0.0840
     17 O3         -3.7312   -0.8281   -0.0111 O.3       1 <0>        -0.3385
     18 C9         -4.8512    1.1829   -0.6837 C.2       1 <0>         0.0019
     19 C10        -5.7652    1.9924   -1.2483 C.2       1 <0>        -0.1810
     20 C11        -5.3720    3.3191   -0.9582 C.2       1 <0>        -0.2211
     21 C12        -4.2414    3.2410   -0.2338 C.2       1 <0>        -0.0277
     22 O4         -3.9338    1.9445   -0.0657 O.3       1 <0>        -0.1478
     23 O5         -2.3443   -2.2503   -2.0764 O.3       1 <0>        -0.3596
     24 C13        -1.1477   -2.6633   -1.4444 C.3       1 <0>         0.2465
     25 H6         -0.2873   -2.2593   -1.9779 H         1 <0>         0.1204
     26 O6         -1.0871   -4.0910   -1.4517 O.3       1 <0>        -0.3266
     27 C14        -0.8785   -4.6935   -2.6519 C.ar      1 <0>         0.1269
     28 C15        -0.7294   -3.9261   -3.7980 C.ar      1 <0>        -0.1894
     29 C16        -0.5170   -4.5410   -5.0167 C.ar      1 <0>        -0.0779
     30 C17        -0.4534   -5.9200   -5.0949 C.ar      1 <0>        -0.1077
     31 C18        -0.6021   -6.6870   -3.9542 C.ar      1 <0>        -0.0858
     32 C19        -0.8085   -6.0768   -2.7321 C.ar      1 <0>        -0.1468
     33 C20        -0.2221   -6.5881   -6.4258 C.3       1 <0>        -0.0252
     34 C21         1.1153   -6.1222   -7.0047 C.3       1 <0>        -0.1389
     35 C22        -0.1948   -8.1061   -6.2365 C.3       1 <0>        -0.1449
     36 C23        -1.3520   -6.2143   -7.3873 C.3       1 <0>        -0.1384
     37 O7         -2.4096   -2.1696    2.0573 O.3       1 <0>        -0.3183
     38 C24        -1.7350   -2.9828    3.0194 C.3       1 <0>         0.0027
     39 C25        -1.8348   -2.3401    4.3788 C.2       1 <0>         0.5064
     40 O8         -2.4286   -1.2835    4.5115 O.co2     1 <0>        -0.6730
     41 O9         -1.3218   -2.8767    5.3460 O.co2     1 <0>        -0.7024
     42 H7         -0.0217    1.8558    1.8812 H         1 <0>         0.0876
     43 H8         -0.0892    1.8647    0.1026 H         1 <0>         0.0753
     44 H9         -1.5957    1.8390    1.0503 H         1 <0>         0.0896
     45 H10        -1.6097   -0.2110   -0.6990 H         1 <0>         0.4030
     46 H11        -4.6710   -2.4317   -3.3013 H         1 <0>         0.1135
     47 H12        -5.6758   -2.6108   -1.8400 H         1 <0>         0.0763
     48 H13        -6.6325    1.6873   -1.8149 H         1 <0>         0.1491
     49 H14        -5.8816    4.2220   -1.2607 H         1 <0>         0.1491
     50 H15        -3.6786    4.0787    0.1509 H         1 <0>         0.2046
     51 H16        -0.7797   -2.8490   -3.7376 H         1 <0>         0.1322
     52 H17        -0.4009   -3.9440   -5.9092 H         1 <0>         0.1213
     53 H18        -0.5524   -7.7640   -4.0179 H         1 <0>         0.1310
     54 H19        -0.9202   -6.6762   -1.8407 H         1 <0>         0.1297
     55 H20         1.9203   -6.3884   -6.3197 H         1 <0>         0.0563
     56 H21         1.2826   -6.6054   -7.9673 H         1 <0>         0.0564
     57 H22         1.0958   -5.0407   -7.1396 H         1 <0>         0.0560
     58 H23        -1.1475   -8.4380   -5.8240 H         1 <0>         0.0586
     59 H24        -0.0274   -8.5893   -7.1991 H         1 <0>         0.0567
     60 H25         0.6102   -8.3723   -5.5515 H         1 <0>         0.0588
     61 H26        -1.3714   -5.1328   -7.5222 H         1 <0>         0.0562
     62 H27        -1.1847   -6.6975   -8.3499 H         1 <0>         0.0562
     63 H28        -2.3048   -6.5462   -6.9748 H         1 <0>         0.0560
     64 H29        -2.1973   -3.9695    3.0492 H         1 <0>         0.0346
     65 H30        -0.6860   -3.0814    2.7402 H         1 <0>         0.0472
@<TRIPOS>BOND
     1    1    2 1
     2    1   42 1
     3    1   43 1
     4    1   44 1
     5    2    3 2
     6    2    4 am
     7    4    5 1
     8    4   45 1
     9    5    6 1
    10    5   24 1
    11    5    7 1
    12    7    8 1
    13    7    9 1
    14    7   37 1
    15    9   10 1
    16    9   17 1
    17    9   11 1
    18   11   12 1
    19   11   13 1
    20   11   23 1
    21   13   14 1
    22   13   46 1
    23   13   47 1
    24   14   15 1
    25   15   16 1
    26   15   17 1
    27   15   18 1
    28   18   22 1
    29   18   19 2
    30   19   20 1
    31   19   48 1
    32   20   21 2
    33   20   49 1
    34   21   22 1
    35   21   50 1
    36   23   24 1
    37   24   25 1
    38   24   26 1
    39   26   27 1
    40   27   32 ar
    41   27   28 ar
    42   28   29 ar
    43   28   51 1
    44   29   30 ar
    45   29   52 1
    46   30   31 ar
    47   30   33 1
    48   31   32 ar
    49   31   53 1
    50   32   54 1
    51   33   34 1
    52   33   35 1
    53   33   36 1
    54   34   55 1
    55   34   56 1
    56   34   57 1
    57   35   58 1
    58   35   59 1
    59   35   60 1
    60   36   61 1
    61   36   62 1
    62   36   63 1
    63   37   38 1
    64   38   39 1
    65   38   64 1
    66   38   65 1
    67   39   40 2
    68   39   41 1
@<TRIPOS>MOLECULE
ZINC40079014
   59    61     0     0     0
SMALL
USER_CHARGES

@<TRIPOS>ATOM
      1 C1         -3.2186   -3.2835   -0.4442 C.3       1 <0>        -0.1803
      2 C2         -4.0982   -4.0512    0.5447 C.3       1 <0>         0.0740
      3 C3         -4.7954   -5.2037   -0.1811 C.3       1 <0>        -0.1475
      4 O1         -3.2863   -4.5736    1.5983 O.3       1 <0>        -0.3105
      5 C4         -2.9879   -3.7328    2.6207 C.ar      1 <0>         0.1459
      6 C5         -3.4766   -2.4310    2.6130 C.ar      1 <0>        -0.2272
      7 C6         -3.1763   -1.5748    3.6482 C.ar      1 <0>        -0.0320
      8 C7         -2.3790   -2.0160    4.7088 C.ar      1 <0>        -0.1776
      9 C8         -1.8900   -3.3260    4.7129 C.ar      1 <0>        -0.0229
     10 C9         -2.1991   -4.1772    3.6761 C.ar      1 <0>        -0.1698
     11 C10        -2.0540   -1.1013    5.8207 C.2       1 <0>         0.5065
     12 O2         -2.5269    0.0199    5.8444 O.2       1 <0>        -0.4764
     13 C11        -1.1615   -1.5434    6.8969 C.2       1 <0>        -0.5070
     14 C12        -1.4985   -1.7501    8.1912 C.2       1 <0>         0.2669
     15 C13        -0.3027   -2.1902    8.9400 C.2       1 <0>         0.5114
     16 O3         -0.2809   -2.4556   10.1254 O.2       1 <0>        -0.5321
     17 N1          0.7582   -2.2535    8.1149 N.am      1 <0>        -0.6078
     18 C14         0.3101   -1.8624    6.7732 C.3       1 <0>         0.2618
     19 H1          0.4579   -2.6836    6.0719 H         1 <0>         0.0890
     20 C15         1.0675   -0.6438    6.3122 C.ar      1 <0>        -0.0108
     21 C16         1.3867    0.3538    7.2143 C.ar      1 <0>        -0.0977
     22 C17         2.0814    1.4716    6.7915 C.ar      1 <0>        -0.0537
     23 C18         2.4572    1.5917    5.4666 C.ar      1 <0>        -0.0634
     24 C19         2.1387    0.5937    4.5647 C.ar      1 <0>        -0.0529
     25 C20         1.4478   -0.5261    4.9884 C.ar      1 <0>        -0.1116
     26 N2          3.2002    2.7890    5.0136 N.pl3     1 <0>         0.0418
     27 O4          3.4784    3.6621    5.8024 O.2       1 <0>        -0.1711
     28 O5          3.5289    2.8940    3.8549 O.3       1 <0>        -0.1717
     29 C21         2.1185   -2.6490    8.4884 C.3       1 <0>         0.1372
     30 C22         2.2754   -4.1612    8.3159 C.3       1 <0>         0.0445
     31 O6          2.1499   -4.4983    6.9329 O.3       1 <0>        -0.3713
     32 C23         2.2814   -5.8951    6.6609 C.3       1 <0>         0.0618
     33 C24         2.1305   -6.1384    5.1580 C.3       1 <0>         0.0781
     34 O7          3.2124   -5.5145    4.4635 O.3       1 <0>        -0.5656
     35 O8         -2.7339   -1.5807    8.7163 O.3       1 <0>        -0.6485
     36 H2         -2.4694   -3.9559   -0.8621 H         1 <0>         0.0661
     37 H3         -3.8379   -2.8851   -1.2479 H         1 <0>         0.0702
     38 H4         -2.7219   -2.4625    0.0729 H         1 <0>         0.0651
     39 H5         -4.8473   -3.3788    0.9625 H         1 <0>         0.0750
     40 H6         -4.0462   -5.8761   -0.5990 H         1 <0>         0.0658
     41 H7         -5.4220   -5.7506    0.5233 H         1 <0>         0.0647
     42 H8         -5.4146   -4.8052   -0.9848 H         1 <0>         0.0753
     43 H9         -4.0924   -2.0911    1.7934 H         1 <0>         0.1286
     44 H10        -3.5557   -0.5637    3.6411 H         1 <0>         0.1311
     45 H11        -1.2739   -3.6706    5.5302 H         1 <0>         0.1408
     46 H12        -1.8252   -5.1904    3.6804 H         1 <0>         0.1288
     47 H13         1.0931    0.2600    8.2494 H         1 <0>         0.1411
     48 H14         2.3303    2.2513    7.4961 H         1 <0>         0.1481
     49 H15         2.4320    0.6876    3.5295 H         1 <0>         0.1483
     50 H16         1.2022   -1.3076    4.2845 H         1 <0>         0.1446
     51 H17         2.8352   -2.1340    7.8487 H         1 <0>         0.0832
     52 H18         2.3020   -2.3811    9.5289 H         1 <0>         0.0964
     53 H19         3.2569   -4.4682    8.6771 H         1 <0>         0.0565
     54 H20         1.5014   -4.6742    8.8866 H         1 <0>         0.0551
     55 H21         3.2630   -6.2380    6.9878 H         1 <0>         0.0521
     56 H22         1.5075   -6.4441    7.1974 H         1 <0>         0.0617
     57 H23         2.1420   -7.2103    4.9605 H         1 <0>         0.0571
     58 H24         1.1864   -5.7157    4.8144 H         1 <0>         0.0577
     59 H25         3.1814   -5.6282    3.5037 H         1 <0>         0.3771
@<TRIPOS>BOND
     1    1    2 1
     2    1   36 1
     3    1   37 1
     4    1   38 1
     5    2    3 1
     6    2    4 1
     7    2   39 1
     8    3   40 1
     9    3   41 1
    10    3   42 1
    11    4    5 1
    12    5   10 ar
    13    5    6 ar
    14    6    7 ar
    15    6   43 1
    16    7    8 ar
    17    7   44 1
    18    8    9 ar
    19    8   11 1
    20    9   10 ar
    21    9   45 1
    22   10   46 1
    23   11   12 2
    24   11   13 1
    25   13   18 1
    26   13   14 2
    27   14   15 1
    28   14   35 1
    29   15   16 2
    30   15   17 am
    31   17   18 1
    32   17   29 1
    33   18   19 1
    34   18   20 1
    35   20   25 ar
    36   20   21 ar
    37   21   22 ar
    38   21   47 1
    39   22   23 ar
    40   22   48 1
    41   23   24 ar
    42   23   26 1
    43   24   25 ar
    44   24   49 1
    45   25   50 1
    46   26   27 2
    47   26   28 1
    48   29   30 1
    49   29   51 1
    50   29   52 1
    51   30   31 1
    52   30   53 1
    53   30   54 1
    54   31   32 1
    55   32   33 1
    56   32   55 1
    57   32   56 1
    58   33   34 1
    59   33   57 1
    60   33   58 1
    61   34   59 1
@<TRIPOS>MOLECULE
ZINC13061500
   50    54     0     0     0
SMALL
USER_CHARGES
2-[2-[(5R)-3,5-bis(2-furyl)-4,5-dihydropyrazol-1-yl]-2-oxo-ethyl]sulfanyl-3-(4-fluorophenyl)imidazole-4-carboxylic acid
@<TRIPOS>ATOM
      1 C1         -7.4802   -2.6773    2.7031 C.2       1 <0>        -0.2137
      2 C2         -7.5171   -2.2394    1.3593 C.2       1 <0>        -0.1811
      3 C3         -6.8070   -1.0984    1.3017 C.2       1 <0>        -0.0275
      4 O1         -6.3398   -0.8267    2.5312 O.3       1 <0>        -0.1671
      5 C4         -6.7498   -1.7778    3.3862 C.2       1 <0>        -0.0293
      6 C5         -6.5705   -0.2690    0.0659 C.3       1 <0>         0.1942
      7 H1         -6.7602   -0.8577   -0.8317 H         1 <0>         0.1290
      8 C6         -7.4513    0.9959    0.0809 C.3       1 <0>        -0.1231
      9 C7         -6.4557    2.1338    0.0768 C.2       1 <0>         0.1739
     10 N1         -5.2559    1.6561    0.0685 N.2       1 <0>        -0.2083
     11 N2         -5.1990    0.2640    0.0549 N.am      1 <0>        -0.4590
     12 C8         -4.0715   -0.4742    0.0401 C.2       1 <0>         0.5782
     13 O2         -4.1394   -1.6855    0.0347 O.2       1 <0>        -0.4901
     14 C9         -2.7263    0.2051    0.0301 C.3       1 <0>        -0.1253
     15 S1         -1.4186   -1.0462    0.0109 S.3       1 <0>         0.0483
     16 C10         0.0021   -0.0041    0.0020 C.2       1 <0>         0.1567
     17 N3         -0.0158    1.3144    0.0093 N.2       1 <0>        -0.4875
     18 C11         1.2283    1.7856   -0.0001 C.2       1 <0>         0.0189
     19 C12         2.0920    0.7102   -0.0141 C.2       1 <0>        -0.0143
     20 N4          1.2934   -0.4301   -0.0126 N.pl3     1 <0>        -0.3730
     21 C13         1.7351   -1.7605   -0.0236 C.ar      1 <0>         0.1297
     22 C14         2.4512   -2.2640    1.0541 C.ar      1 <0>        -0.0212
     23 C15         2.8810   -3.5765    1.0437 C.ar      1 <0>        -0.1446
     24 C16         2.6080   -4.3868   -0.0456 C.ar      1 <0>         0.1034
     25 C17         1.8984   -3.8848   -1.1237 C.ar      1 <0>        -0.1489
     26 C18         1.4620   -2.5746   -1.1145 C.ar      1 <0>        -0.0765
     27 F1          3.0341   -5.6688   -0.0563 F         1 <0>        -0.1417
     28 C19         3.5081    0.7568   -0.0270 C.2       1 <0>         0.5105
     29 O3          4.0816    1.8301   -0.0267 O.co2     1 <0>        -0.6192
     30 C20        -6.7992    3.5590    0.0880 C.2       1 <0>         0.0252
     31 C21        -5.9135    4.5973    0.0845 C.2       1 <0>        -0.1351
     32 C22        -6.6760    5.7796    0.0988 C.2       1 <0>        -0.2155
     33 C23        -7.9743    5.4141    0.1103 C.2       1 <0>        -0.0128
     34 O4         -8.0454    4.0732    0.0979 O.3       1 <0>        -0.1659
     35 H2         -7.9483   -3.5642    3.1040 H         1 <0>         0.1508
     36 H3         -8.0195   -2.7270    0.5370 H         1 <0>         0.1504
     37 H4         -6.5265   -1.8166    4.4422 H         1 <0>         0.2040
     38 H5         -8.0799    1.0346   -0.8088 H         1 <0>         0.1179
     39 H6         -8.0621    1.0257    0.9832 H         1 <0>         0.1130
     40 H7         -2.6247    0.8231    0.9222 H         1 <0>         0.1299
     41 H8         -2.6423    0.8320   -0.8576 H         1 <0>         0.1307
     42 H9          1.5122    2.8276    0.0028 H         1 <0>         0.1820
     43 H10         2.6682   -1.6310    1.9018 H         1 <0>         0.1339
     44 H11         3.4342   -3.9698    1.8837 H         1 <0>         0.1396
     45 H12         1.6865   -4.5183   -1.9723 H         1 <0>         0.1397
     46 H13         0.9090   -2.1833   -1.9557 H         1 <0>         0.1346
     47 H14        -4.8359    4.5253    0.0726 H         1 <0>         0.1625
     48 H15        -6.2938    6.7897    0.1006 H         1 <0>         0.1572
     49 H16        -8.8176    6.0886    0.1227 H         1 <0>         0.2112
     50 O5          4.2209   -0.3892   -0.0395 O.co2     1 <0>        -0.7445
@<TRIPOS>BOND
     1    1    5 2
     2    1    2 1
     3    1   35 1
     4    2    3 2
     5    2   36 1
     6    3    4 1
     7    3    6 1
     8    4    5 1
     9    5   37 1
    10    6    7 1
    11    6   11 1
    12    6    8 1
    13    8    9 1
    14    8   38 1
    15    8   39 1
    16    9   10 2
    17    9   30 1
    18   10   11 1
    19   11   12 am
    20   12   13 2
    21   12   14 1
    22   14   15 1
    23   14   40 1
    24   14   41 1
    25   15   16 1
    26   16   20 1
    27   16   17 2
    28   17   18 1
    29   18   19 2
    30   18   42 1
    31   19   20 1
    32   19   28 1
    33   20   21 1
    34   21   26 ar
    35   21   22 ar
    36   22   23 ar
    37   22   43 1
    38   23   24 ar
    39   23   44 1
    40   24   25 ar
    41   24   27 1
    42   25   26 ar
    43   25   45 1
    44   26   46 1
    45   28   29 2
    46   28   50 1
    47   30   34 1
    48   30   31 2
    49   31   32 1
    50   31   47 1
    51   32   33 2
    52   32   48 1
    53   33   34 1
    54   33   49 1
@<TRIPOS>MOLECULE
ZINC09068014
   52    55     0     0     0
SMALL
USER_CHARGES
methyl 2-[(2S)-2-(2-furyl)-4-hydroxy-3-(4-methoxy-3-methyl-benzoyl)-5-oxo-2H-pyrrol-1-yl]-4-methyl-thiazole-5-carboxylate
@<TRIPOS>ATOM
      1 C1         -1.6144    7.5991   -5.3466 C.3       1 <0>        -0.1000
      2 C2         -0.7810    7.3947   -4.1077 C.ar      1 <0>        -0.1336
      3 C3         -0.0678    6.2286   -3.9436 C.ar      1 <0>        -0.0330
      4 C4          0.7047    6.0399   -2.7937 C.ar      1 <0>        -0.1716
      5 C5          0.7450    7.0351   -1.8121 C.ar      1 <0>        -0.0312
      6 C6          0.0332    8.2001   -1.9864 C.ar      1 <0>        -0.2197
      7 C7         -0.7339    8.3838   -3.1318 C.ar      1 <0>         0.1410
      8 O1         -1.4388    9.5315   -3.2972 O.3       1 <0>        -0.3136
      9 C8         -1.3456   10.5058   -2.2560 C.3       1 <0>         0.0228
     10 C9          1.4706    4.7910   -2.6134 C.2       1 <0>         0.5112
     11 O2          1.5139    3.9688   -3.5097 O.2       1 <0>        -0.4660
     12 C10         2.1792    4.5409   -1.3545 C.2       1 <0>        -0.4946
     13 C11         3.5209    4.4546   -1.1837 C.2       1 <0>         0.2802
     14 C12         3.8136    4.1930    0.2401 C.2       1 <0>         0.5125
     15 O3          4.9264    4.0644    0.7108 O.2       1 <0>        -0.4541
     16 N1          2.6665    4.1181    0.9390 N.am      1 <0>        -0.5065
     17 C13         1.5543    4.3279    0.0046 C.3       1 <0>         0.3044
     18 H1          0.9522    5.1910    0.3248 H         1 <0>         0.1093
     19 C14         0.6619    3.1138   -0.0199 C.2       1 <0>        -0.0169
     20 C15        -0.6831    3.1260   -0.0223 C.2       1 <0>        -0.1988
     21 C16        -1.1050    1.7770   -0.0542 C.2       1 <0>        -0.2115
     22 C17         0.0075    1.0209   -0.0611 C.2       1 <0>        -0.0410
     23 O4          1.0747    1.8360   -0.0434 O.3       1 <0>        -0.1602
     24 C18         2.5551    3.8853    2.2966 C.2       1 <0>         0.3768
     25 N2          3.5170    3.6844    3.1844 N.2       1 <0>        -0.5504
     26 C19         3.2514    3.4790    4.4473 C.2       1 <0>         0.2187
     27 C20         1.9175    3.4667    4.8341 C.2       1 <0>        -0.3280
     28 S1          1.1184    3.7751    3.2655 S.3       1 <0>         0.1348
     29 C21         1.3305    3.2586    6.1562 C.2       1 <0>         0.5719
     30 O5          2.0501    3.0598    7.1169 O.2       1 <0>        -0.5038
     31 O6         -0.0096    3.2868    6.3114 O.3       1 <0>        -0.3496
     32 C22        -0.5144    3.0756    7.6315 C.3       1 <0>         0.0337
     33 C23         4.3551    3.2579    5.4494 C.3       1 <0>        -0.1089
     34 O7          4.4455    4.5877   -2.1626 O.3       1 <0>        -0.6254
     35 H2         -1.5272    6.7162   -5.9969 H         1 <0>         0.0647
     36 H3         -1.2572    8.4886   -5.8861 H         1 <0>         0.0658
     37 H4         -2.6671    7.7416   -5.0610 H         1 <0>         0.0655
     38 H5         -0.1046    5.4609   -4.7023 H         1 <0>         0.1373
     39 H6          1.3372    6.8915   -0.9205 H         1 <0>         0.1340
     40 H7          0.0671    8.9710   -1.2308 H         1 <0>         0.1298
     41 H8         -1.9608   11.3799   -2.5157 H         1 <0>         0.0986
     42 H9         -0.2972   10.8172   -2.1380 H         1 <0>         0.0570
     43 H10        -1.7071   10.0702   -1.3128 H         1 <0>         0.0567
     44 H11        -1.3188    3.9990   -0.0072 H         1 <0>         0.1483
     45 H12        -2.1248    1.4217   -0.0680 H         1 <0>         0.1467
     46 H13         0.0374   -0.0585   -0.0819 H         1 <0>         0.1982
     47 H14        -1.6132    3.1238    7.6159 H         1 <0>         0.1033
     48 H15        -0.1227    3.8540    8.3027 H         1 <0>         0.0621
     49 H16        -0.1959    2.0863    7.9919 H         1 <0>         0.0620
     50 H17         3.9189    3.1055    6.4476 H         1 <0>         0.1057
     51 H18         5.0151    4.1377    5.4680 H         1 <0>         0.0829
     52 H19         4.9369    2.3691    5.1639 H         1 <0>         0.0827
@<TRIPOS>BOND
     1    1    2 1
     2    1   35 1
     3    1   36 1
     4    1   37 1
     5    2    7 ar
     6    2    3 ar
     7    3    4 ar
     8    3   38 1
     9    4    5 ar
    10    4   10 1
    11    5    6 ar
    12    5   39 1
    13    6    7 ar
    14    6   40 1
    15    7    8 1
    16    8    9 1
    17    9   41 1
    18    9   42 1
    19    9   43 1
    20   10   11 2
    21   10   12 1
    22   12   17 1
    23   12   13 2
    24   13   14 1
    25   13   34 1
    26   14   15 2
    27   14   16 am
    28   16   17 1
    29   16   24 1
    30   17   18 1
    31   17   19 1
    32   19   23 1
    33   19   20 2
    34   20   21 1
    35   20   44 1
    36   21   22 2
    37   21   45 1
    38   22   23 1
    39   22   46 1
    40   24   28 1
    41   24   25 2
    42   25   26 1
    43   26   27 2
    44   26   33 1
    45   27   28 1
    46   27   29 1
    47   29   30 2
    48   29   31 1
    49   31   32 1
    50   32   47 1
    51   32   48 1
    52   32   49 1
    53   33   50 1
    54   33   51 1
    55   33   52 1
@<TRIPOS>MOLECULE
ZINC33528571
   55    58     0     0     0
SMALL
USER_CHARGES
(2S)-2-(3-ethoxy-4-propoxy-phenyl)-3-(furan-2-carbonyl)-4-hydroxy-1-(5-methyl-1,3,4-thiadiazol-2-yl)-2H-pyrrol-5-one
@<TRIPOS>ATOM
      1 C1         -0.0840    5.6352    8.4366 C.3       1 <0>        -0.1501
      2 C2          0.6935    5.9002    7.1458 C.3       1 <0>        -0.1234
      3 C3         -0.0410    5.2583    5.9671 C.3       1 <0>         0.0571
      4 O1          0.6852    5.5059    4.7615 O.3       1 <0>        -0.3072
      5 C4          0.1643    4.9994    3.6119 C.ar      1 <0>         0.1011
      6 C5         -1.0196    4.2801    3.6439 C.ar      1 <0>        -0.1776
      7 C6         -1.5481    3.7663    2.4743 C.ar      1 <0>        -0.0698
      8 C7         -0.8980    3.9688    1.2710 C.ar      1 <0>        -0.0750
      9 C8          0.2862    4.6810    1.2329 C.ar      1 <0>        -0.1411
     10 C9          0.8187    5.2028    2.4008 C.ar      1 <0>         0.0934
     11 O2          1.9810    5.9080    2.3643 O.3       1 <0>        -0.3078
     12 C10         2.6605    5.9742    1.1090 C.3       1 <0>         0.0495
     13 C11         3.9956    6.6993    1.2894 C.3       1 <0>        -0.1482
     14 C12        -1.4785    3.4065   -0.0010 C.3       1 <0>         0.2613
     15 H1         -2.4366    2.9243    0.2431 H         1 <0>         0.0942
     16 C13        -1.6353    4.5021   -1.0295 C.2       1 <0>        -0.4605
     17 C14        -0.8729    4.1523   -2.0916 C.2       1 <0>         0.2881
     18 C15        -0.2043    2.8679   -1.8075 C.2       1 <0>         0.5089
     19 O3          0.5508    2.2922   -2.5662 O.2       1 <0>        -0.4824
     20 N1         -0.5577    2.4253   -0.5871 N.am      1 <0>        -0.4958
     21 C16        -0.1280    1.2483    0.0116 C.2       1 <0>         0.3305
     22 N2         -0.4186    0.7409    1.2020 N.2       1 <0>        -0.3166
     23 N3          0.0630   -0.3575    1.5924 N.2       1 <0>        -0.2535
     24 C17         0.8922   -1.0640    0.8496 C.2       1 <0>         0.0204
     25 S1          0.9835   -0.0159   -0.5992 S.3       1 <0>         0.0041
     26 C18         1.5694   -2.3792    1.1376 C.3       1 <0>        -0.0506
     27 O4         -0.7419    4.8688   -3.2328 O.3       1 <0>        -0.5872
     28 C19        -2.4598    5.7092   -0.9038 C.2       1 <0>         0.5027
     29 O5         -2.4041    6.5767   -1.7576 O.2       1 <0>        -0.4644
     30 C20        -3.3551    5.8687    0.2460 C.2       1 <0>        -0.0538
     31 C21        -4.0769    6.9995    0.5621 C.2       1 <0>        -0.1610
     32 C22        -4.7905    6.7035    1.7325 C.2       1 <0>        -0.2238
     33 C23        -4.4772    5.4350    2.0816 C.2       1 <0>        -0.0344
     34 O6         -3.6148    4.9367    1.1864 O.3       1 <0>        -0.1444
     35 H2          0.4441    6.0967    9.2840 H         1 <0>         0.0622
     36 H3         -0.1632    4.5504    8.6008 H         1 <0>         0.0573
     37 H4         -1.0918    6.0680    8.3530 H         1 <0>         0.0574
     38 H5          0.7727    6.9850    6.9816 H         1 <0>         0.0726
     39 H6          1.7013    5.4675    7.2294 H         1 <0>         0.0721
     40 H7         -0.1202    4.1735    6.1313 H         1 <0>         0.0595
     41 H8         -1.0489    5.6910    5.8835 H         1 <0>         0.0595
     42 H9         -1.5298    4.1212    4.5824 H         1 <0>         0.1299
     43 H10        -2.4709    3.2059    2.5006 H         1 <0>         0.1262
     44 H11         0.7941    4.8342    0.2921 H         1 <0>         0.1285
     45 H12         2.8439    4.9553    0.7372 H         1 <0>         0.0570
     46 H13         2.0403    6.5227    0.3848 H         1 <0>         0.0654
     47 H14         4.5187    6.7503    0.3231 H         1 <0>         0.0771
     48 H15         4.6158    6.1508    2.0136 H         1 <0>         0.0630
     49 H16         3.8122    7.7182    1.6612 H         1 <0>         0.0656
     50 H17         2.1946   -2.6655    0.2790 H         1 <0>         0.0849
     51 H18         0.8077   -3.1536    1.3109 H         1 <0>         0.0924
     52 H19         2.2002   -2.2784    2.0331 H         1 <0>         0.0922
     53 H20        -4.0915    7.9303    0.0147 H         1 <0>         0.1507
     54 H21        -5.4613    7.3662    2.2591 H         1 <0>         0.1455
     55 H22        -4.8604    4.9089    2.9435 H         1 <0>         0.1983
@<TRIPOS>BOND
     1    1    2 1
     2    1   35 1
     3    1   36 1
     4    1   37 1
     5    2    3 1
     6    2   38 1
     7    2   39 1
     8    3    4 1
     9    3   40 1
    10    3   41 1
    11    4    5 1
    12    5   10 ar
    13    5    6 ar
    14    6    7 ar
    15    6   42 1
    16    7    8 ar
    17    7   43 1
    18    8    9 ar
    19    8   14 1
    20    9   10 ar
    21    9   44 1
    22   10   11 1
    23   11   12 1
    24   12   13 1
    25   12   45 1
    26   12   46 1
    27   13   47 1
    28   13   48 1
    29   13   49 1
    30   14   15 1
    31   14   20 1
    32   14   16 1
    33   16   17 2
    34   16   28 1
    35   17   18 1
    36   17   27 1
    37   18   19 2
    38   18   20 am
    39   20   21 1
    40   21   25 1
    41   21   22 2
    42   22   23 1
    43   23   24 2
    44   24   25 1
    45   24   26 1
    46   26   50 1
    47   26   51 1
    48   26   52 1
    49   28   29 2
    50   28   30 1
    51   30   34 1
    52   30   31 2
    53   31   32 1
    54   31   53 1
    55   32   33 2
    56   32   54 1
    57   33   34 1
    58   33   55 1
@<TRIPOS>MOLECULE
ZINC35922567
   65    67     0     0     0
SMALL
USER_CHARGES

@<TRIPOS>ATOM
      1 C1         -0.6449   -1.1533    0.6831 C.3       1 <0>        -0.1533
      2 C2         -0.6028   -2.6575    0.4068 C.3       1 <0>         0.0595
      3 O1          0.1161   -2.8994   -0.8043 O.3       1 <0>        -0.3484
      4 C3          0.2449   -4.1782   -1.1915 C.2       1 <0>         0.4716
      5 O2         -0.2368   -5.0629   -0.5242 O.2       1 <0>        -0.5052
      6 C4          0.9902   -4.5105   -2.4584 C.3       1 <0>        -0.0956
      7 H1          0.5024   -4.0273   -3.3049 H         1 <0>         0.1148
      8 C5          0.9921   -6.0266   -2.6672 C.3       1 <0>        -0.1031
      9 C6          1.7204   -6.3628   -3.9705 C.3       1 <0>        -0.1346
     10 C7          3.1732   -5.8859   -3.8767 C.3       1 <0>         0.1020
     11 N1          3.1807   -4.4576   -3.5324 N.am      1 <0>        -0.6187
     12 C8          2.4345   -4.0119   -2.3477 C.3       1 <0>         0.1236
     13 C9          3.8593   -3.5724   -4.2889 C.2       1 <0>         0.5251
     14 O3          3.8578   -2.3959   -3.9942 O.2       1 <0>        -0.5331
     15 C10         4.6201   -4.0445   -5.5011 C.3       1 <0>        -0.1250
     16 C11         5.2959   -2.8494   -6.1764 C.3       1 <0>        -0.0140
     17 C12         6.0566   -3.3214   -7.3886 C.ar      1 <0>        -0.0751
     18 C13         7.3911   -3.7175   -7.2752 C.ar      1 <0>         0.4166
     19 O4          8.0223   -3.6839   -6.0764 O.3       1 <0>        -0.6697
     20 N2          8.0289   -4.1279   -8.3648 N.ar      1 <0>        -0.5804
     21 C14         7.3849   -4.1509   -9.5271 C.ar      1 <0>         0.3201
     22 N3          6.1158   -3.7685   -9.6077 N.ar      1 <0>        -0.3870
     23 N4          5.4679   -3.3707   -8.5692 N.ar      1 <0>        -0.1963
     24 C15         8.0912   -4.6079  -10.7471 C.ar      1 <0>        -0.0192
     25 C16         9.4223   -5.0165  -10.6717 C.ar      1 <0>        -0.0672
     26 C17        10.0791   -5.4418  -11.8076 C.ar      1 <0>        -0.1873
     27 C18         9.4180   -5.4643  -13.0269 C.ar      1 <0>         0.1090
     28 C19         8.0881   -5.0578  -13.1083 C.ar      1 <0>         0.0823
     29 C20         7.4240   -4.6356  -11.9713 C.ar      1 <0>        -0.1280
     30 O5          7.4419   -5.0802  -14.3047 O.3       1 <0>        -0.3101
     31 C21         6.0794   -4.6497  -14.3143 C.3       1 <0>         0.0258
     32 O6         10.0689   -5.8832  -14.1440 O.3       1 <0>        -0.3006
     33 C22        11.4624   -6.1717  -14.0131 C.3       1 <0>         0.0740
     34 C23        11.6413   -7.6059  -13.5111 C.3       1 <0>        -0.1809
     35 C24        12.1448   -6.0188  -15.3739 C.3       1 <0>        -0.1464
     36 H2          0.3720   -0.7734    0.7821 H         1 <0>         0.0688
     37 H3         -1.1434   -0.6460   -0.1429 H         1 <0>         0.0673
     38 H4         -1.1933   -0.9688    1.6068 H         1 <0>         0.0783
     39 H5         -0.1043   -3.1648    1.2327 H         1 <0>         0.0672
     40 H6         -1.6197   -3.0374    0.3078 H         1 <0>         0.0663
     41 H7          1.5014   -6.5076   -1.8321 H         1 <0>         0.0748
     42 H8         -0.0352   -6.3869   -2.7220 H         1 <0>         0.0755
     43 H9          1.7010   -7.4408   -4.1305 H         1 <0>         0.0844
     44 H10         1.2262   -5.8621   -4.8031 H         1 <0>         0.0727
     45 H11         3.6940   -6.4509   -3.1036 H         1 <0>         0.0721
     46 H12         3.6688   -6.0331   -4.8362 H         1 <0>         0.0945
     47 H13         2.4424   -2.9230   -2.2985 H         1 <0>         0.1068
     48 H14         2.8954   -4.4236   -1.4498 H         1 <0>         0.0698
     49 H15         5.3782   -4.7659   -5.1961 H         1 <0>         0.0962
     50 H16         3.9309   -4.5159   -6.2018 H         1 <0>         0.0906
     51 H17         4.5378   -2.1280   -6.4814 H         1 <0>         0.0713
     52 H18         5.9850   -2.3780   -5.4758 H         1 <0>         0.0856
     53 H19         9.9393   -4.9995   -9.7236 H         1 <0>         0.1426
     54 H20        11.1102   -5.7576  -11.7476 H         1 <0>         0.1365
     55 H21         6.3918   -4.3237  -12.0321 H         1 <0>         0.1498
     56 H22         5.6842   -4.7170  -15.3280 H         1 <0>         0.0952
     57 H23         5.4924   -5.2865  -13.6525 H         1 <0>         0.0559
     58 H24         6.0222   -3.6171  -13.9699 H         1 <0>         0.0561
     59 H25        11.9115   -5.4790  -13.3015 H         1 <0>         0.0737
     60 H26        11.1921   -8.2986  -14.2228 H         1 <0>         0.0655
     61 H27        12.7041   -7.8260  -13.4113 H         1 <0>         0.0689
     62 H28        11.1550   -7.7149  -12.5417 H         1 <0>         0.0655
     63 H29        12.0174   -4.9971  -15.7315 H         1 <0>         0.0639
     64 H30        13.2077   -6.2389  -15.2741 H         1 <0>         0.0736
     65 H31        11.6957   -6.7115  -16.0855 H         1 <0>         0.0652
@<TRIPOS>BOND
     1    1    2 1
     2    1   36 1
     3    1   37 1
     4    1   38 1
     5    2    3 1
     6    2   39 1
     7    2   40 1
     8    3    4 1
     9    4    5 2
    10    4    6 1
    11    6    7 1
    12    6   12 1
    13    6    8 1
    14    8    9 1
    15    8   41 1
    16    8   42 1
    17    9   10 1
    18    9   43 1
    19    9   44 1
    20   10   11 1
    21   10   45 1
    22   10   46 1
    23   11   12 1
    24   11   13 am
    25   12   47 1
    26   12   48 1
    27   13   14 2
    28   13   15 1
    29   15   16 1
    30   15   49 1
    31   15   50 1
    32   16   17 1
    33   16   51 1
    34   16   52 1
    35   17   23 ar
    36   17   18 ar
    37   18   19 1
    38   18   20 ar
    39   20   21 ar
    40   21   22 ar
    41   21   24 1
    42   22   23 ar
    43   24   29 ar
    44   24   25 ar
    45   25   26 ar
    46   25   53 1
    47   26   27 ar
    48   26   54 1
    49   27   28 ar
    50   27   32 1
    51   28   29 ar
    52   28   30 1
    53   29   55 1
    54   30   31 1
    55   31   56 1
    56   31   57 1
    57   31   58 1
    58   32   33 1
    59   33   34 1
    60   33   35 1
    61   33   59 1
    62   34   60 1
    63   34   61 1
    64   34   62 1
    65   35   63 1
    66   35   64 1
    67   35   65 1
@<TRIPOS>MOLECULE
ZINC39420232
   51    54     0     0     0
SMALL
USER_CHARGES

@<TRIPOS>ATOM
      1 C1          0.0327    1.4917    0.0196 C.3       1 <0>        -0.1226
      2 C2          0.0425   -0.0152    0.0101 C.ar      1 <0>        -0.0535
      3 C3          0.0439   -0.6960   -1.1949 C.ar      1 <0>        -0.1252
      4 C4          0.0523   -2.0748   -1.2119 C.ar      1 <0>        -0.0607
      5 C5          0.0599   -2.7852   -0.0073 C.ar      1 <0>        -0.0613
      6 C6          0.0589   -2.0900    1.2061 C.ar      1 <0>        -0.0792
      7 C7          0.0557   -0.7111    1.2064 C.ar      1 <0>        -0.1214
      8 C8          0.0685   -4.2568   -0.0166 C.2       1 <0>         0.1664
      9 N1          0.0757   -5.0371   -1.0618 N.2       1 <0>        -0.3014
     10 N2          0.0834   -6.3835   -0.7125 N.2       1 <0>        -0.2930
     11 C9          0.0816   -6.5627    0.5685 C.2       1 <0>         0.0946
     12 C10         0.0773   -5.1789    1.1867 C.3       1 <0>        -0.1272
     13 H1          0.9744   -5.0208    1.7852 H         1 <0>         0.1430
     14 C11        -1.1616   -4.9760    2.0204 C.2       1 <0>         0.0402
     15 C12        -1.0526   -4.5862    3.3049 C.2       1 <0>        -0.0972
     16 C13         0.2407   -4.3644    3.8785 C.1       1 <0>         0.2273
     17 N3          1.2666   -4.1885    4.3335 N.1       1 <0>        -0.3760
     18 C14        -2.2669   -4.3874    4.1220 C.2       1 <0>         0.5698
     19 O1         -3.3649   -4.5757    3.6350 O.2       1 <0>        -0.4917
     20 N4         -2.1578   -3.9973    5.4075 N.am      1 <0>        -0.6628
     21 C15        -3.3071   -3.7155    6.1527 C.ar      1 <0>         0.1714
     22 C16        -3.2920   -2.6973    7.0972 C.ar      1 <0>        -0.1633
     23 C17        -4.4289   -2.4213    7.8312 C.ar      1 <0>        -0.0032
     24 C18        -5.5813   -3.1578    7.6268 C.ar      1 <0>        -0.6319
     25 C19        -5.5996   -4.1725    6.6875 C.ar      1 <0>        -0.0034
     26 C20        -4.4680   -4.4495    5.9459 C.ar      1 <0>        -0.1406
     27 S1         -7.0294   -2.8028    8.5657 S.o2      1 <0>         2.6358
     28 O2         -7.8101   -3.9901    8.5727 O.2       1 <0>        -1.0095
     29 O3         -6.5934   -2.1707    9.7614 O.2       1 <0>        -1.0104
     30 N5         -7.8955   -1.6718    7.7212 N.2       1 <0>        -1.0305
     31 C21        -9.0964   -1.1991    8.2269 C.2       1 <0>         0.4014
     32 N6         -9.6952   -1.5259    9.3523 N.2       1 <0>        -0.6659
     33 C22       -10.8485   -0.9792    9.6949 C.2       1 <0>         0.1000
     34 C23       -11.3795   -0.0739    8.8385 C.2       1 <0>        -0.3458
     35 S2        -10.1393   -0.0622    7.5542 S.3       1 <0>         0.0108
     36 H2          1.0580    1.8617    0.0144 H         1 <0>         0.0761
     37 H3         -0.4899    1.8572   -0.8644 H         1 <0>         0.0719
     38 H4         -0.4769    1.8461    0.9155 H         1 <0>         0.0725
     39 H5          0.0380   -0.1460   -2.1243 H         1 <0>         0.1325
     40 H6          0.0527   -2.6047   -2.1530 H         1 <0>         0.1377
     41 H7          0.0648   -2.6316    2.1404 H         1 <0>         0.1187
     42 H8          0.0589   -0.1727    2.1426 H         1 <0>         0.1318
     43 H9          0.0861   -7.5074    1.0918 H         1 <0>         0.2127
     44 H10        -2.1370   -5.1433    1.5878 H         1 <0>         0.1727
     45 H11        -1.2820   -3.9119    5.8157 H         1 <0>         0.4111
     46 H12        -2.3920   -2.1222    7.2578 H         1 <0>         0.1309
     47 H13        -4.4177   -1.6297    8.5657 H         1 <0>         0.1436
     48 H14        -6.5012   -4.7460    6.5306 H         1 <0>         0.1434
     49 H15        -4.4842   -5.2392    5.2093 H         1 <0>         0.1454
     50 H16       -11.3458   -1.2428   10.6166 H         1 <0>         0.1457
     51 H17       -12.2983    0.4887    8.9137 H         1 <0>         0.1705
@<TRIPOS>BOND
     1    1    2 1
     2    1   36 1
     3    1   37 1
     4    1   38 1
     5    2    7 ar
     6    2    3 ar
     7    3    4 ar
     8    3   39 1
     9    4    5 ar
    10    4   40 1
    11    5    6 ar
    12    5    8 1
    13    6    7 ar
    14    6   41 1
    15    7   42 1
    16    8   12 1
    17    8    9 2
    18    9   10 1
    19   10   11 2
    20   11   12 1
    21   11   43 1
    22   12   13 1
    23   12   14 1
    24   14   15 2
    25   14   44 1
    26   15   16 1
    27   15   18 1
    28   16   17 3
    29   18   19 2
    30   18   20 am
    31   20   21 1
    32   20   45 1
    33   21   26 ar
    34   21   22 ar
    35   22   23 ar
    36   22   46 1
    37   23   24 ar
    38   23   47 1
    39   24   25 ar
    40   24   27 1
    41   25   26 ar
    42   25   48 1
    43   26   49 1
    44   27   28 2
    45   27   29 2
    46   27   30 1
    47   30   31 1
    48   31   35 1
    49   31   32 2
    50   32   33 1
    51   33   34 2
    52   33   50 1
    53   34   35 1
    54   34   51 1
@<TRIPOS>MOLECULE
ZINC17529862
   64    66     0     0     0
SMALL
USER_CHARGES

@<TRIPOS>ATOM
      1 C1         -2.4563   -0.9323    0.1256 C.3       1 <0>        -0.1505
      2 C2         -0.9415   -1.0894   -0.0210 C.3       1 <0>         0.0554
      3 O1         -0.3994   -1.6276    1.1867 O.3       1 <0>        -0.3317
      4 C3          0.9345   -1.8292    1.2230 C.2       1 <0>         0.5350
      5 O2          1.6179   -1.5549    0.2543 O.2       1 <0>        -0.4972
      6 C4          1.5381   -2.3593    2.3869 C.2       1 <0>        -0.2255
      7 C5          1.4893   -3.6844    2.6076 C.2       1 <0>         0.2017
      8 N1          2.0693   -4.2313    3.7196 N.pl3     1 <0>        -0.6253
      9 C6          3.0013   -3.5253    4.4301 C.2       1 <0>         0.2510
     10 C7          3.1133   -2.1935    4.2855 C.2       1 <0>        -0.2693
     11 C8          2.2252   -1.4300    3.3468 C.3       1 <0>         0.0637
     12 C9          1.1869   -0.6878    4.1481 C.2       1 <0>         0.4592
     13 O3          0.0124   -0.8961    3.9554 O.2       1 <0>        -0.4844
     14 O4          1.5668    0.2045    5.0761 O.3       1 <0>        -0.3112
     15 C10         0.5294    0.8712    5.7981 C.3       1 <0>         0.0433
     16 C11         1.1417    1.8279    6.7885 C.2       1 <0>         0.5287
     17 O5          2.3477    1.9290    6.8682 O.2       1 <0>        -0.4806
     18 N2          0.3491    2.5713    7.5858 N.am      1 <0>        -0.5474
     19 C12        -1.0488    2.5340    7.5860 C.ar      1 <0>         0.1377
     20 C13        -1.9137    1.7638    6.8061 C.ar      1 <0>        -0.1635
     21 C14        -3.2784    1.8774    6.9629 C.ar      1 <0>        -0.0821
     22 C15        -3.8014    2.7553    7.8948 C.ar      1 <0>        -0.1390
     23 C16        -2.9515    3.5212    8.6705 C.ar      1 <0>        -0.0722
     24 C17        -1.5827    3.4110    8.5164 C.ar      1 <0>        -0.1304
     25 C18        -0.4456    4.1163    9.2209 C.3       1 <0>        -0.0852
     26 C19         0.8260    3.5325    8.5838 C.3       1 <0>         0.1382
     27 H1          1.4025    4.3225    8.1026 H         1 <0>         0.0938
     28 C20         1.6747    2.8231    9.6408 C.3       1 <0>        -0.1650
     29 C21         4.0928   -1.4967    5.0304 C.2       1 <0>         0.5239
     30 O6          4.8230   -2.1028    5.7922 O.2       1 <0>        -0.5243
     31 O7          4.2178   -0.1597    4.8964 O.3       1 <0>        -0.3311
     32 C22         5.2281    0.4791    5.6794 C.3       1 <0>         0.0765
     33 C23         5.2189    1.9825    5.3953 C.3       1 <0>        -0.1515
     34 C24         3.9131   -4.2493    5.3868 C.3       1 <0>        -0.1163
     35 C25         0.7868   -4.5784    1.6185 C.3       1 <0>        -0.1341
     36 H2         -2.6732   -0.2574    0.9536 H         1 <0>         0.0674
     37 H3         -2.8698   -0.5218   -0.7956 H         1 <0>         0.0787
     38 H4         -2.9051   -1.9058    0.3231 H         1 <0>         0.0661
     39 H5         -0.7246   -1.7643   -0.8490 H         1 <0>         0.0673
     40 H6         -0.4927   -0.1160   -0.2186 H         1 <0>         0.0667
     41 H7          1.8183   -5.1236    4.0057 H         1 <0>         0.4258
     42 H8          2.8244   -0.7131    2.7855 H         1 <0>         0.1233
     43 H9         -0.1010    1.4236    5.1014 H         1 <0>         0.1036
     44 H10        -0.0742    0.1353    6.3293 H         1 <0>         0.1018
     45 H11        -1.5117    1.0763    6.0766 H         1 <0>         0.1322
     46 H12        -3.9416    1.2785    6.3563 H         1 <0>         0.1315
     47 H13        -4.8710    2.8426    8.0158 H         1 <0>         0.1296
     48 H14        -3.3582    4.2076    9.3984 H         1 <0>         0.1281
     49 H15        -0.5012    5.1914    9.0501 H         1 <0>         0.0941
     50 H16        -0.4664    3.8985   10.2887 H         1 <0>         0.0952
     51 H17         2.5330    2.3523    9.1615 H         1 <0>         0.0758
     52 H18         2.0219    3.5496   10.3754 H         1 <0>         0.0753
     53 H19         1.0737    2.0620   10.1384 H         1 <0>         0.0598
     54 H20         5.0301    0.3081    6.7375 H         1 <0>         0.0642
     55 H21         6.2033    0.0665    5.4209 H         1 <0>         0.0580
     56 H22         5.9896    2.4698    5.9926 H         1 <0>         0.0712
     57 H23         5.4169    2.1536    4.3372 H         1 <0>         0.0582
     58 H24         4.2438    2.3952    5.6539 H         1 <0>         0.0802
     59 H25         3.6811   -5.3143    5.3743 H         1 <0>         0.0656
     60 H26         4.9496   -4.0998    5.0844 H         1 <0>         0.1088
     61 H27         3.7683   -3.8577    6.3936 H         1 <0>         0.1049
     62 H28         1.5019   -4.9299    0.8748 H         1 <0>         0.0955
     63 H29         0.3574   -5.4326    2.1420 H         1 <0>         0.0880
     64 H30        -0.0071   -4.0192    1.1234 H         1 <0>         0.0927
@<TRIPOS>BOND
     1    1    2 1
     2    1   36 1
     3    1   37 1
     4    1   38 1
     5    2    3 1
     6    2   39 1
     7    2   40 1
     8    3    4 1
     9    4    5 2
    10    4    6 1
    11    6   11 1
    12    6    7 2
    13    7    8 1
    14    7   35 1
    15    8    9 1
    16    8   41 1
    17    9   10 2
    18    9   34 1
    19   10   11 1
    20   10   29 1
    21   11   12 1
    22   11   42 1
    23   12   13 2
    24   12   14 1
    25   14   15 1
    26   15   16 1
    27   15   43 1
    28   15   44 1
    29   16   17 2
    30   16   18 am
    31   18   26 1
    32   18   19 1
    33   19   24 ar
    34   19   20 ar
    35   20   21 ar
    36   20   45 1
    37   21   22 ar
    38   21   46 1
    39   22   23 ar
    40   22   47 1
    41   23   24 ar
    42   23   48 1
    43   24   25 1
    44   25   26 1
    45   25   49 1
    46   25   50 1
    47   26   27 1
    48   26   28 1
    49   28   51 1
    50   28   52 1
    51   28   53 1
    52   29   30 2
    53   29   31 1
    54   31   32 1
    55   32   33 1
    56   32   54 1
    57   32   55 1
    58   33   56 1
    59   33   57 1
    60   33   58 1
    61   34   59 1
    62   34   60 1
    63   34   61 1
    64   35   62 1
    65   35   63 1
    66   35   64 1
@<TRIPOS>MOLECULE
ZINC13351301
   61    63     0     0     0
SMALL
USER_CHARGES
2-[2-methoxy-4-[(E)-3-[3-methoxy-4-(2-morpholino-2-oxo-ethoxy)phenyl]prop-2-enoyl]phenoxy]acetic acid
@<TRIPOS>ATOM
      1 C1          9.5953    5.3656   -0.0647 C.3       1 <0>         0.0239
      2 O1          9.6827    3.9393   -0.0728 O.3       1 <0>        -0.3025
      3 C2          8.5111    3.2489   -0.0640 C.ar      1 <0>         0.1028
      4 C3          7.3095    3.9288   -0.0543 C.ar      1 <0>        -0.1471
      5 C4          6.1053    3.2144   -0.0404 C.ar      1 <0>        -0.0745
      6 C5          6.1266    1.8144   -0.0476 C.ar      1 <0>        -0.0888
      7 C6          7.3298    1.1447   -0.0627 C.ar      1 <0>        -0.1772
      8 C7          8.5237    1.8543   -0.0711 C.ar      1 <0>         0.1121
      9 O2          9.7071    1.1881   -0.0869 O.3       1 <0>        -0.2759
     10 C8          9.6478   -0.2397   -0.0939 C.3       1 <0>         0.0397
     11 C9         11.0465   -0.8005   -0.1113 C.2       1 <0>         0.5212
     12 O3         12.0002   -0.0512   -0.1171 O.2       1 <0>        -0.5079
     13 N1         11.2375   -2.1346   -0.1204 N.am      1 <0>        -0.6168
     14 C10        10.0962   -3.0633   -0.1075 C.3       1 <0>         0.0677
     15 C11        10.2929   -4.0800   -1.2434 C.3       1 <0>         0.0459
     16 O4         11.5907   -4.6682   -1.1268 O.3       1 <0>        -0.3769
     17 C12        12.6688   -3.7397   -1.2665 C.3       1 <0>         0.0472
     18 C13        12.5937   -2.7055   -0.1374 C.3       1 <0>         0.0785
     19 C14         4.8234    3.9317   -0.0243 C.2       1 <0>        -0.0089
     20 C15         3.6616    3.2398   -0.0165 C.2       1 <0>        -0.2306
     21 C16         2.4240    3.9323   -0.0009 C.2       1 <0>         0.4318
     22 O5          2.4076    5.1501    0.0054 O.2       1 <0>        -0.4739
     23 C17         1.1550    3.1766    0.0076 C.ar      1 <0>        -0.1848
     24 C18         1.1720    1.7794    0.0004 C.ar      1 <0>        -0.0607
     25 C19        -0.0126    1.0758    0.0080 C.ar      1 <0>        -0.2006
     26 C20        -1.2253    1.7521    0.0174 C.ar      1 <0>         0.1517
     27 C21        -1.2494    3.1461    0.0300 C.ar      1 <0>         0.0788
     28 C22        -0.0654    3.8574    0.0225 C.ar      1 <0>        -0.1168
     29 O6         -2.4387    3.8056    0.0444 O.3       1 <0>        -0.2973
     30 C23        -2.3887    5.2337    0.0511 C.3       1 <0>         0.0258
     31 O7         -2.3902    1.0542    0.0191 O.3       1 <0>        -0.2683
     32 C24        -2.2925   -0.3714    0.0109 C.3       1 <0>         0.0132
     33 C25        -3.6756   -0.9698    0.0142 C.2       1 <0>         0.4690
     34 O8         -4.6455   -0.2494    0.0227 O.co2     1 <0>        -0.6095
     35 H1         10.5987    5.7912   -0.0731 H         1 <0>         0.1023
     36 H2          9.0509    5.7013   -0.9474 H         1 <0>         0.0566
     37 H3          9.0695    5.6923    0.8325 H         1 <0>         0.0567
     38 H4          7.2984    5.0087   -0.0536 H         1 <0>         0.1428
     39 H5          5.1997    1.2600   -0.0418 H         1 <0>         0.1380
     40 H6          7.3451    0.0648   -0.0683 H         1 <0>         0.1390
     41 H7          9.1285   -0.5861    0.7996 H         1 <0>         0.0962
     42 H8          9.1102   -0.5766   -0.9802 H         1 <0>         0.0952
     43 H9         10.0559   -3.5821    0.8504 H         1 <0>         0.0865
     44 H10         9.1706   -2.5097   -0.2649 H         1 <0>         0.0943
     45 H11        10.2069   -3.5757   -2.2059 H         1 <0>         0.0593
     46 H12         9.5328   -4.8579   -1.1708 H         1 <0>         0.1117
     47 H13        12.5914   -3.2341   -2.2290 H         1 <0>         0.0581
     48 H14        13.6179   -4.2725   -1.2096 H         1 <0>         0.1100
     49 H15        13.3227   -1.9148   -0.3147 H         1 <0>         0.1043
     50 H16        12.8005   -3.1888    0.8174 H         1 <0>         0.0802
     51 H17         4.8088    5.0116   -0.0187 H         1 <0>         0.1358
     52 H18         3.6762    2.1599   -0.0220 H         1 <0>         0.1351
     53 H19         2.1139    1.2509   -0.0107 H         1 <0>         0.1315
     54 H20         0.0021   -0.0041    0.0020 H         1 <0>         0.1438
     55 H21        -0.0826    4.9372    0.0277 H         1 <0>         0.1422
     56 H22        -1.8541    5.5743    0.9379 H         1 <0>         0.0526
     57 H23        -1.8708    5.5833   -0.8420 H         1 <0>         0.0526
     58 H24        -3.4029    5.6327    0.0626 H         1 <0>         0.1002
     59 H25        -1.7592   -0.6939   -0.8834 H         1 <0>         0.0697
     60 H26        -1.7508   -0.7036    0.8965 H         1 <0>         0.0698
     61 O9         -3.8300   -2.3032    0.0077 O.co2     1 <0>        -0.7548
@<TRIPOS>BOND
     1    1    2 1
     2    1   35 1
     3    1   36 1
     4    1   37 1
     5    2    3 1
     6    3    8 ar
     7    3    4 ar
     8    4    5 ar
     9    4   38 1
    10    5    6 ar
    11    5   19 1
    12    6    7 ar
    13    6   39 1
    14    7    8 ar
    15    7   40 1
    16    8    9 1
    17    9   10 1
    18   10   11 1
    19   10   41 1
    20   10   42 1
    21   11   12 2
    22   11   13 am
    23   13   18 1
    24   13   14 1
    25   14   15 1
    26   14   43 1
    27   14   44 1
    28   15   16 1
    29   15   45 1
    30   15   46 1
    31   16   17 1
    32   17   18 1
    33   17   47 1
    34   17   48 1
    35   18   49 1
    36   18   50 1
    37   19   20 2
    38   19   51 1
    39   20   21 1
    40   20   52 1
    41   21   22 2
    42   21   23 1
    43   23   28 ar
    44   23   24 ar
    45   24   25 ar
    46   24   53 1
    47   25   26 ar
    48   25   54 1
    49   26   27 ar
    50   26   31 1
    51   27   28 ar
    52   27   29 1
    53   28   55 1
    54   29   30 1
    55   30   56 1
    56   30   57 1
    57   30   58 1
    58   31   32 1
    59   32   33 1
    60   32   59 1
    61   32   60 1
    62   33   34 2
    63   33   61 1
@<TRIPOS>MOLECULE
ZINC28790792
   46    47     0     0     0
SMALL
USER_CHARGES
(E)-3-[3-[[(4-bromo-1-methyl-pyrrole-2-carbonyl)amino]sulfamoyl]-4,5-dimethoxy-phenyl]prop-2-enoic acid
@<TRIPOS>ATOM
      1 C1         -6.0129   -3.0059   -3.1505 C.3       1 <0>         0.0380
      2 N1         -5.5996   -2.0442   -4.1754 N.pl3     1 <0>        -0.4245
      3 C2         -5.9667   -2.0726   -5.4805 C.2       1 <0>         0.0736
      4 C3         -5.3860   -1.0296   -6.1216 C.2       1 <0>        -0.1819
      5 C4         -4.6264   -0.3200   -5.1856 C.2       1 <0>        -0.0646
      6 C5         -4.7692   -0.9649   -3.9752 C.2       1 <0>        -0.0464
      7 C6         -4.1487   -0.5725   -2.7054 C.2       1 <0>         0.5964
      8 O1         -3.3211    0.3194   -2.6827 O.2       1 <0>        -0.5078
      9 N2         -4.4951   -1.1996   -1.5639 N.am      1 <0>        -0.5288
     10 N3         -3.9722   -0.7646   -0.3391 N.pl3     1 <0>        -0.9002
     11 S1         -4.9937   -0.3209    0.8865 S.o2      1 <0>         2.6982
     12 O2         -5.9624   -1.3541    1.0019 O.2       1 <0>        -0.9477
     13 O3         -4.1723    0.0783    1.9752 O.2       1 <0>        -0.9189
     14 C7         -5.8552    1.1198    0.3509 C.ar      1 <0>        -0.6596
     15 C8         -7.1821    1.0325   -0.0098 C.ar      1 <0>        -0.0434
     16 C9         -7.8687    2.1767   -0.4312 C.ar      1 <0>        -0.0146
     17 C10        -7.2006    3.4056   -0.4944 C.ar      1 <0>        -0.1433
     18 C11        -5.8698    3.4828   -0.1357 C.ar      1 <0>         0.0978
     19 C12        -5.1937    2.3387    0.2879 C.ar      1 <0>         0.1584
     20 O4         -3.8841    2.4173    0.6394 O.3       1 <0>        -0.3203
     21 C13        -2.9235    2.3401   -0.4157 C.3       1 <0>         0.0101
     22 O5         -5.2177    4.6747   -0.1958 O.3       1 <0>        -0.3047
     23 C14        -5.9716    5.8051   -0.6384 C.3       1 <0>         0.0164
     24 C15        -9.2853    2.0876   -0.8121 C.2       1 <0>        -0.1252
     25 C16        -9.9448    3.1924   -1.2240 C.2       1 <0>        -0.1278
     26 C17       -11.3114    3.1064   -1.5915 C.2       1 <0>         0.4687
     27 O6        -11.8901    2.0378   -1.5360 O.co2     1 <0>        -0.6323
     28 O7        -11.9701    4.2098   -2.0029 O.co2     1 <0>        -0.7601
     29 Br1        -5.5705   -0.6076   -7.9556 Br        1 <0>        -0.0220
     30 H1         -6.6765   -3.7589   -3.6006 H         1 <0>         0.1172
     31 H2         -6.5484   -2.4784   -2.3474 H         1 <0>         0.0973
     32 H3         -5.1241   -3.5025   -2.7340 H         1 <0>         0.0954
     33 H4         -6.6159   -2.8065   -5.9347 H         1 <0>         0.1836
     34 H5         -4.0384    0.5658   -5.3752 H         1 <0>         0.1595
     35 H6         -5.1884   -2.0530   -1.5939 H         1 <0>         0.4401
     36 H7         -3.0119   -0.7232   -0.2091 H         1 <0>         0.4277
     37 H8         -7.6929    0.0821    0.0360 H         1 <0>         0.1507
     38 H9         -7.7251    4.2908   -0.8225 H         1 <0>         0.1476
     39 H10        -1.9100    2.4162    0.0049 H         1 <0>         0.0972
     40 H11        -3.0895    3.1653   -1.1238 H         1 <0>         0.0527
     41 H12        -3.0316    1.3794   -0.9404 H         1 <0>         0.0741
     42 H13        -5.3281    6.6972   -0.6397 H         1 <0>         0.1054
     43 H14        -6.8219    5.9673    0.0404 H         1 <0>         0.0611
     44 H15        -6.3451    5.6209   -1.6565 H         1 <0>         0.0601
     45 H16        -9.8086    1.1214   -0.7618 H         1 <0>         0.1404
     46 H17        -9.4215    4.1586   -1.2742 H         1 <0>         0.1061
@<TRIPOS>BOND
     1    1    2 1
     2    1   30 1
     3    1   31 1
     4    1   32 1
     5    2    6 1
     6    2    3 1
     7    3    4 2
     8    3   33 1
     9    4    5 1
    10    4   29 1
    11    5    6 2
    12    5   34 1
    13    6    7 1
    14    7    8 2
    15    7    9 am
    16    9   10 1
    17    9   35 1
    18   10   11 1
    19   10   36 1
    20   11   12 2
    21   11   13 2
    22   11   14 1
    23   14   19 ar
    24   14   15 ar
    25   15   16 ar
    26   15   37 1
    27   16   17 ar
    28   16   24 1
    29   17   18 ar
    30   17   38 1
    31   18   19 ar
    32   18   22 1
    33   19   20 1
    34   20   21 1
    35   21   39 1
    36   21   40 1
    37   21   41 1
    38   22   23 1
    39   23   42 1
    40   23   43 1
    41   23   44 1
    42   24   25 2
    43   24   45 1
    44   25   26 1
    45   25   46 1
    46   26   27 2
    47   26   28 1
@<TRIPOS>MOLECULE
ZINC35420035
   63    67     0     0     0
SMALL
USER_CHARGES

@<TRIPOS>ATOM
      1 C1          2.6304    1.2088   -3.7882 C.3       1 <0>        -0.0780
      2 C2          2.1710   -0.2194   -3.6461 C.2       1 <0>         0.1659
      3 C3          0.9513   -0.6350   -3.1273 C.2       1 <0>        -0.1403
      4 N1          0.9530   -2.0169   -3.1859 N.pl3     1 <0>        -0.3303
      5 C4          0.0346   -2.9507   -2.8217 C.2       1 <0>         0.0817
      6 C5          0.2887   -4.2695   -2.9886 C.2       1 <0>        -0.1602
      7 C6          1.5067   -4.6861   -3.5415 C.2       1 <0>        -0.0950
      8 C7          2.4331   -3.7551   -3.9098 C.2       1 <0>        -0.0922
      9 C8          2.1500   -2.3907   -3.7278 C.2       1 <0>         0.2327
     10 N2          2.8565   -1.2929   -3.9987 N.2       1 <0>        -0.5070
     11 C9         -0.0881    0.1926   -2.6349 C.2       1 <0>         0.5457
     12 C10         0.0181    1.6524   -2.7517 C.2       1 <0>        -0.4926
     13 C11         0.3441    2.6239   -1.6413 C.3       1 <0>         0.2661
     14 H1          1.3304    2.4073   -1.2311 H         1 <0>         0.0702
     15 N3          0.3330    3.9589   -2.2513 N.am      1 <0>        -0.6104
     16 C12         0.0395    3.8139   -3.5563 C.2       1 <0>         0.5123
     17 O1         -0.0505    4.7246   -4.3559 O.2       1 <0>        -0.5323
     18 C13        -0.1513    2.3860   -3.8748 C.2       1 <0>         0.2636
     19 O2         -0.4514    1.8888   -5.0985 O.3       1 <0>        -0.6552
     20 C14         0.5943    5.2246   -1.5614 C.3       1 <0>         0.1414
     21 C15         2.0904    5.5393   -1.6224 C.3       1 <0>         0.0386
     22 N4          2.3524    6.8084   -0.9306 N.3       1 <0>        -0.5333
     23 C16         1.7354    7.9352   -1.6454 C.3       1 <0>         0.0120
     24 C17         1.9815    9.2266   -0.8607 C.3       1 <0>         0.0650
     25 O3          3.3885    9.4066   -0.6780 O.3       1 <0>        -0.3879
     26 C18         4.0217    8.3279    0.0153 C.3       1 <0>         0.0651
     27 C19         3.7962    7.0274   -0.7604 C.3       1 <0>         0.0180
     28 C20        -0.6990    2.5408   -0.5569 C.ar      1 <0>        -0.0324
     29 C21        -1.9555    3.0783   -0.7658 C.ar      1 <0>        -0.1074
     30 C22        -2.9159    3.0046    0.2259 C.ar      1 <0>        -0.1060
     31 C23        -2.6202    2.3906    1.4324 C.ar      1 <0>         0.0621
     32 C24        -1.3556    1.8492    1.6425 C.ar      1 <0>         0.1008
     33 C25        -0.3991    1.9222    0.6425 C.ar      1 <0>        -0.1837
     34 O4         -1.0606    1.2456    2.8249 O.3       1 <0>        -0.3122
     35 C26         0.2854    0.8023    3.0089 C.3       1 <0>         0.0271
     36 O5         -3.5636    2.3176    2.4092 O.3       1 <0>        -0.4903
     37 O6         -1.0709   -0.3076   -2.1141 O.2       1 <0>        -0.5025
     38 H2          2.2409    1.6250   -4.7173 H         1 <0>         0.0884
     39 H3          2.2629    1.7943   -2.9455 H         1 <0>         0.0884
     40 H4          3.7199    1.2401   -3.8047 H         1 <0>         0.0647
     41 H5         -0.9066   -2.6371   -2.3949 H         1 <0>         0.1722
     42 H6         -0.4486   -5.0019   -2.6947 H         1 <0>         0.1501
     43 H7          1.7111   -5.7381   -3.6749 H         1 <0>         0.1412
     44 H8          3.3759   -4.0637   -4.3368 H         1 <0>         0.1499
     45 H9          0.0347    6.0248   -2.0459 H         1 <0>         0.0781
     46 H10         0.2826    5.1420   -0.5202 H         1 <0>         0.0844
     47 H11         2.6500    4.7391   -1.1379 H         1 <0>         0.0795
     48 H12         2.4022    5.6219   -2.6636 H         1 <0>         0.0435
     49 H13         2.1773    8.0226   -2.6379 H         1 <0>         0.0458
     50 H14         0.6628    7.7642   -1.7376 H         1 <0>         0.0905
     51 H15         1.5753   10.0725   -1.4153 H         1 <0>         0.0971
     52 H16         1.4938    9.1602    0.1118 H         1 <0>         0.0596
     53 H17         5.0910    8.5238    0.0944 H         1 <0>         0.0959
     54 H18         3.5932    8.2353    1.0133 H         1 <0>         0.0591
     55 H19         4.2280    6.1937   -0.2067 H         1 <0>         0.0861
     56 H20         4.2711    7.1002   -1.7388 H         1 <0>         0.0433
     57 H21        -2.1873    3.5571   -1.7057 H         1 <0>         0.1226
     58 H22        -3.8964    3.4258    0.0604 H         1 <0>         0.1303
     59 H23         0.5819    1.4995    0.8017 H         1 <0>         0.1261
     60 H24         0.3822    0.3308    3.9869 H         1 <0>         0.0959
     61 H25         0.5402    0.0819    2.2315 H         1 <0>         0.0534
     62 H26         0.9606    1.6559    2.9487 H         1 <0>         0.0540
     63 H27        -4.1136    1.5235    2.3662 H         1 <0>         0.3806
@<TRIPOS>BOND
     1    1    2 1
     2    1   38 1
     3    1   39 1
     4    1   40 1
     5    2   10 1
     6    2    3 2
     7    3    4 1
     8    3   11 1
     9    4    9 1
    10    4    5 1
    11    5    6 2
    12    5   41 1
    13    6    7 1
    14    6   42 1
    15    7    8 2
    16    7   43 1
    17    8    9 1
    18    8   44 1
    19    9   10 2
    20   11   12 1
    21   11   37 2
    22   12   18 2
    23   12   13 1
    24   13   15 1
    25   13   28 1
    26   13   14 1
    27   15   20 1
    28   15   16 am
    29   16   17 2
    30   16   18 1
    31   18   19 1
    32   20   21 1
    33   20   45 1
    34   20   46 1
    35   21   22 1
    36   21   47 1
    37   21   48 1
    38   22   27 1
    39   22   23 1
    40   23   24 1
    41   23   49 1
    42   23   50 1
    43   24   25 1
    44   24   51 1
    45   24   52 1
    46   25   26 1
    47   26   27 1
    48   26   53 1
    49   26   54 1
    50   27   55 1
    51   27   56 1
    52   28   33 ar
    53   28   29 ar
    54   29   30 ar
    55   29   57 1
    56   30   31 ar
    57   30   58 1
    58   31   32 ar
    59   31   36 1
    60   32   33 ar
    61   32   34 1
    62   33   59 1
    63   34   35 1
    64   35   60 1
    65   35   61 1
    66   35   62 1
    67   36   63 1
@<TRIPOS>MOLECULE
ZINC40077216
   63    65     0     0     0
SMALL
USER_CHARGES

@<TRIPOS>ATOM
      1 C1          4.8290    1.7292   -0.2615 C.3       1 <0>         0.0272
      2 O1          4.9572    0.3060   -0.2557 O.3       1 <0>        -0.3188
      3 C2          4.3558   -0.3709   -1.2664 C.ar      1 <0>         0.1369
      4 C3          3.6597    0.3246   -2.2488 C.ar      1 <0>        -0.2235
      5 C4          3.0482   -0.3582   -3.2758 C.ar      1 <0>        -0.0336
      6 C5          3.1280   -1.7531   -3.3304 C.ar      1 <0>        -0.1718
      7 C6          3.8294   -2.4486   -2.3407 C.ar      1 <0>        -0.0268
      8 C7          4.4421   -1.7577   -1.3198 C.ar      1 <0>        -0.1677
      9 C8          2.4734   -2.4894   -4.4295 C.2       1 <0>         0.5068
     10 O2          1.8048   -1.8894   -5.2505 O.2       1 <0>        -0.4745
     11 C9          2.6286   -3.9440   -4.5322 C.2       1 <0>        -0.5000
     12 C10         3.2839   -4.6191   -5.5048 C.2       1 <0>         0.2623
     13 C11         3.2008   -6.0689   -5.2302 C.2       1 <0>         0.5112
     14 O3          3.6913   -6.9389   -5.9221 O.2       1 <0>        -0.5383
     15 N1          2.5019   -6.2829   -4.1007 N.am      1 <0>        -0.6051
     16 C12         2.0932   -4.9775   -3.5689 C.3       1 <0>         0.2665
     17 H1          2.5206   -4.8233   -2.5781 H         1 <0>         0.0828
     18 C13         0.5898   -4.8957   -3.5040 C.ar      1 <0>         0.0097
     19 C14        -0.1770   -5.5284   -4.4644 C.ar      1 <0>        -0.2092
     20 C15        -1.5606   -5.4552   -4.4084 C.ar      1 <0>         0.1472
     21 C16        -2.1762   -4.7448   -3.3847 C.ar      1 <0>         0.0153
     22 C17        -1.4016   -4.1105   -2.4208 C.ar      1 <0>         0.1482
     23 C18        -0.0187   -4.1929   -2.4810 C.ar      1 <0>        -0.2209
     24 O4         -1.9992   -3.4141   -1.4171 O.3       1 <0>        -0.3064
     25 C19        -1.1483   -2.8866   -0.3974 C.3       1 <0>         0.0260
     26 O5         -3.5338   -4.6702   -3.3266 O.3       1 <0>        -0.3123
     27 C20        -4.2083   -5.6881   -2.5843 C.3       1 <0>         0.0361
     28 O6         -2.3142   -6.0773   -5.3543 O.3       1 <0>        -0.3066
     29 C21        -1.6141   -6.7886   -6.3770 C.3       1 <0>         0.0257
     30 C22         2.2066   -7.5878   -3.5038 C.3       1 <0>         0.1380
     31 C23         3.3220   -7.9660   -2.5271 C.3       1 <0>         0.0452
     32 O7          3.3318   -7.0443   -1.4352 O.3       1 <0>        -0.3696
     33 C24         4.3420   -7.3094   -0.4599 C.3       1 <0>         0.0614
     34 C25         4.2593   -6.2664    0.6565 C.3       1 <0>         0.0783
     35 O8          3.0179   -6.4082    1.3499 O.3       1 <0>        -0.5648
     36 O9          3.9150   -4.0561   -6.5610 O.3       1 <0>        -0.6555
     37 H2          5.2602    2.1291   -1.1792 H         1 <0>         0.0554
     38 H3          3.7743    1.9992   -0.2079 H         1 <0>         0.0550
     39 H4          5.3546    2.1449    0.5981 H         1 <0>         0.0968
     40 H5          3.5985    1.4020   -2.2059 H         1 <0>         0.1269
     41 H6          2.5071    0.1827   -4.0381 H         1 <0>         0.1322
     42 H7          3.8934   -3.5260   -2.3792 H         1 <0>         0.1416
     43 H8          4.9875   -2.2938   -0.5572 H         1 <0>         0.1287
     44 H9          0.3021   -6.0803   -5.2595 H         1 <0>         0.1312
     45 H10         0.5839   -3.7039   -1.7298 H         1 <0>         0.1320
     46 H11        -1.7568   -2.4311    0.3838 H         1 <0>         0.0963
     47 H12        -0.5513   -3.6921    0.0302 H         1 <0>         0.0574
     48 H13        -0.4878   -2.1343   -0.8286 H         1 <0>         0.0566
     49 H14        -3.8693   -5.6675   -1.5486 H         1 <0>         0.0406
     50 H15        -5.2833   -5.5106   -2.6183 H         1 <0>         0.0858
     51 H16        -3.9870   -6.6624   -3.0198 H         1 <0>         0.0407
     52 H17        -2.3317   -7.2364   -7.0645 H         1 <0>         0.0986
     53 H18        -0.9695   -6.0995   -6.9227 H         1 <0>         0.0605
     54 H19        -1.0071   -7.5724   -5.9240 H         1 <0>         0.0541
     55 H20         1.2578   -7.5367   -2.9696 H         1 <0>         0.0845
     56 H21         2.1411   -8.3404   -4.2896 H         1 <0>         0.0931
     57 H22         3.1485   -8.9740   -2.1502 H         1 <0>         0.0552
     58 H23         4.2825   -7.9306   -3.0412 H         1 <0>         0.0542
     59 H24         4.1897   -8.3037   -0.0401 H         1 <0>         0.0515
     60 H25         5.3237   -7.2603   -0.9310 H         1 <0>         0.0612
     61 H26         5.0840   -6.4144    1.3538 H         1 <0>         0.0567
     62 H27         4.3228   -5.2672    0.2256 H         1 <0>         0.0575
     63 H28         2.8970   -5.7775    2.0728 H         1 <0>         0.3762
@<TRIPOS>BOND
     1    1    2 1
     2    1   37 1
     3    1   38 1
     4    1   39 1
     5    2    3 1
     6    3    8 ar
     7    3    4 ar
     8    4    5 ar
     9    4   40 1
    10    5    6 ar
    11    5   41 1
    12    6    7 ar
    13    6    9 1
    14    7    8 ar
    15    7   42 1
    16    8   43 1
    17    9   10 2
    18    9   11 1
    19   11   16 1
    20   11   12 2
    21   12   13 1
    22   12   36 1
    23   13   14 2
    24   13   15 am
    25   15   16 1
    26   15   30 1
    27   16   17 1
    28   16   18 1
    29   18   23 ar
    30   18   19 ar
    31   19   20 ar
    32   19   44 1
    33   20   21 ar
    34   20   28 1
    35   21   22 ar
    36   21   26 1
    37   22   23 ar
    38   22   24 1
    39   23   45 1
    40   24   25 1
    41   25   46 1
    42   25   47 1
    43   25   48 1
    44   26   27 1
    45   27   49 1
    46   27   50 1
    47   27   51 1
    48   28   29 1
    49   29   52 1
    50   29   53 1
    51   29   54 1
    52   30   31 1
    53   30   55 1
    54   30   56 1
    55   31   32 1
    56   31   57 1
    57   31   58 1
    58   32   33 1
    59   33   34 1
    60   33   59 1
    61   33   60 1
    62   34   35 1
    63   34   61 1
    64   34   62 1
    65   35   63 1
@<TRIPOS>MOLECULE
ZINC09271105
   70    73     0     0     0
SMALL
USER_CHARGES

@<TRIPOS>ATOM
      1 C1         -0.2421    2.0150   -0.1639 C.3       1 <0>        -0.0980
      2 C2          0.9119    1.4216   -0.9301 C.2       1 <0>         0.0001
      3 C3          0.8249    0.5721   -2.0556 C.2       1 <0>        -0.2381
      4 C4          2.1204    0.2687   -2.4366 C.2       1 <0>         0.1535
      5 N1          2.9649    0.8914   -1.5993 N.pl3     1 <0>        -0.5260
      6 H1          3.9329    0.8475   -1.6423 H         1 <0>         0.4198
      7 C5          2.2385    1.6078   -0.6720 C.2       1 <0>        -0.0817
      8 C6          2.7963    2.4269    0.4090 C.2       1 <0>         0.5381
      9 O1          2.0536    3.0141    1.1721 O.2       1 <0>        -0.5006
     10 O2          4.1330    2.5289    0.5567 O.3       1 <0>        -0.3634
     11 C7          4.6066    3.3435    1.6310 C.3       1 <0>         0.0382
     12 C8          2.5158   -0.6115   -3.5942 C.3       1 <0>        -0.0973
     13 C9         -0.4124    0.0981   -2.7022 C.2       1 <0>         0.5419
     14 O3         -1.4949    0.3634   -2.2130 O.2       1 <0>        -0.4816
     15 C10        -0.3389   -0.6933   -3.9353 C.2       1 <0>        -0.4955
     16 C11        -0.0875   -0.2264   -5.1797 C.2       1 <0>         0.2564
     17 C12        -0.1019   -1.3546   -6.1341 C.2       1 <0>         0.5094
     18 O4          0.0908   -1.2588   -7.3299 O.2       1 <0>        -0.5373
     19 N2         -0.3595   -2.5035   -5.4831 N.am      1 <0>        -0.6115
     20 C13        -0.5228   -2.1878   -4.0591 C.3       1 <0>         0.2680
     21 H2          0.2313   -2.7084   -3.4688 H         1 <0>         0.0673
     22 C14        -1.9034   -2.5799   -3.5993 C.ar      1 <0>        -0.0607
     23 C15        -2.9997   -2.3038   -4.3951 C.ar      1 <0>        -0.0834
     24 C16        -4.2682   -2.6614   -3.9778 C.ar      1 <0>        -0.1701
     25 C17        -4.4429   -3.2984   -2.7597 C.ar      1 <0>         0.0884
     26 C18        -3.3394   -3.5766   -1.9589 C.ar      1 <0>         0.0968
     27 C19        -2.0702   -3.2198   -2.3853 C.ar      1 <0>        -0.1604
     28 O5         -3.5058   -4.2016   -0.7626 O.3       1 <0>        -0.3110
     29 C20        -2.3453   -4.3522    0.0576 C.3       1 <0>         0.0279
     30 O6         -5.6902   -3.6504   -2.3475 O.3       1 <0>        -0.3114
     31 C21        -6.7758   -3.3329   -3.2208 C.3       1 <0>         0.0286
     32 C22        -0.4549   -3.8345   -6.0877 C.3       1 <0>         0.1414
     33 C23         0.9250   -4.4953   -6.0865 C.3       1 <0>         0.0394
     34 N3          0.8293   -5.8299   -6.6928 N.3       1 <0>        -0.5331
     35 C24         0.4946   -5.7369   -8.1213 C.3       1 <0>         0.0124
     36 C25         0.3463   -7.1473   -8.6981 C.3       1 <0>         0.0649
     37 O7          1.5541   -7.8790   -8.4715 O.3       1 <0>        -0.3881
     38 C26         1.9098   -7.9896   -7.0907 C.3       1 <0>         0.0649
     39 C27         2.0739   -6.5877   -6.4977 C.3       1 <0>         0.0184
     40 O8          0.1404    1.0685   -5.5000 O.3       1 <0>        -0.6607
     41 H3         -0.5135    2.9755   -0.6019 H         1 <0>         0.0704
     42 H4         -1.0961    1.3393   -0.2122 H         1 <0>         0.0838
     43 H5          0.0485    2.1594    0.8767 H         1 <0>         0.0732
     44 H6          5.6966    3.3394    1.6369 H         1 <0>         0.0990
     45 H7          4.2479    4.3642    1.4984 H         1 <0>         0.0602
     46 H8          4.2367    2.9484    2.5771 H         1 <0>         0.0598
     47 H9          2.5191   -0.0243   -4.5126 H         1 <0>         0.0931
     48 H10         3.5122   -1.0169   -3.4187 H         1 <0>         0.0570
     49 H11         1.8020   -1.4298   -3.6888 H         1 <0>         0.1015
     50 H12        -2.8648   -1.8074   -5.3448 H         1 <0>         0.1201
     51 H13        -5.1230   -2.4440   -4.6011 H         1 <0>         0.1289
     52 H14        -1.2117   -3.4379   -1.7674 H         1 <0>         0.1293
     53 H15        -1.5891   -4.9208   -0.4837 H         1 <0>         0.0516
     54 H16        -1.9488   -3.3688    0.3102 H         1 <0>         0.0550
     55 H17        -2.6129   -4.8819    0.9719 H         1 <0>         0.0944
     56 H18        -7.7118   -3.6671   -2.7733 H         1 <0>         0.0944
     57 H19        -6.8125   -2.2549   -3.3777 H         1 <0>         0.0532
     58 H20        -6.6311   -3.8345   -4.1776 H         1 <0>         0.0512
     59 H21        -1.1509   -4.4456   -5.5130 H         1 <0>         0.0843
     60 H22        -0.8131   -3.7429   -7.1131 H         1 <0>         0.0763
     61 H23         1.6210   -3.8842   -6.6613 H         1 <0>         0.0419
     62 H24         1.2831   -4.5869   -5.0611 H         1 <0>         0.0790
     63 H25        -0.4432   -5.1944   -8.2408 H         1 <0>         0.0906
     64 H26         1.2902   -5.2101   -8.6480 H         1 <0>         0.0453
     65 H27        -0.4844   -7.6554   -8.2082 H         1 <0>         0.0597
     66 H28         0.1545   -7.0842   -9.7692 H         1 <0>         0.0970
     67 H29         1.1246   -8.5222   -6.5541 H         1 <0>         0.0594
     68 H30         2.8487   -8.5356   -6.9994 H         1 <0>         0.0957
     69 H31         2.8948   -6.0745   -6.9985 H         1 <0>         0.0425
     70 H32         2.2889   -6.6662   -5.4320 H         1 <0>         0.0859
@<TRIPOS>BOND
     1    1    2 1
     2    1   41 1
     3    1   42 1
     4    1   43 1
     5    2    7 2
     6    2    3 1
     7    3    4 2
     8    3   13 1
     9    4    5 1
    10    4   12 1
    11    5    6 1
    12    5    7 1
    13    7    8 1
    14    8    9 2
    15    8   10 1
    16   10   11 1
    17   11   44 1
    18   11   45 1
    19   11   46 1
    20   12   47 1
    21   12   48 1
    22   12   49 1
    23   13   14 2
    24   13   15 1
    25   15   20 1
    26   15   16 2
    27   16   17 1
    28   16   40 1
    29   17   18 2
    30   17   19 am
    31   19   20 1
    32   19   32 1
    33   20   21 1
    34   20   22 1
    35   22   27 ar
    36   22   23 ar
    37   23   24 ar
    38   23   50 1
    39   24   25 ar
    40   24   51 1
    41   25   26 ar
    42   25   30 1
    43   26   27 ar
    44   26   28 1
    45   27   52 1
    46   28   29 1
    47   29   53 1
    48   29   54 1
    49   29   55 1
    50   30   31 1
    51   31   56 1
    52   31   57 1
    53   31   58 1
    54   32   33 1
    55   32   59 1
    56   32   60 1
    57   33   34 1
    58   33   61 1
    59   33   62 1
    60   34   39 1
    61   34   35 1
    62   35   36 1
    63   35   63 1
    64   35   64 1
    65   36   37 1
    66   36   65 1
    67   36   66 1
    68   37   38 1
    69   38   39 1
    70   38   67 1
    71   38   68 1
    72   39   69 1
    73   39   70 1
@<TRIPOS>MOLECULE
ZINC13237491
   59    62     0     0     0
SMALL
USER_CHARGES
2-[3-[2-(1-cyclopropyl-4-methoxycarbonyl-2,5-dimethyl-pyrrol-3-yl)-2-oxo-ethyl]sulfanyl-5-(m-tolyl)-1,2,4-triazol-4-yl]acetic acid
@<TRIPOS>ATOM
      1 C1         -2.7644   -2.4356   -1.7013 C.3       1 <0>        -0.1154
      2 C2         -2.9629   -1.8863   -0.3120 C.ar      1 <0>        -0.0822
      3 C3         -3.7935   -2.5440    0.5782 C.ar      1 <0>        -0.1138
      4 C4         -3.9815   -2.0462    1.8551 C.ar      1 <0>        -0.1211
      5 C5         -3.3410   -0.8894    2.2492 C.ar      1 <0>        -0.0865
      6 C6         -2.5016   -0.2215    1.3564 C.ar      1 <0>        -0.0039
      7 C7         -2.3200   -0.7265    0.0678 C.ar      1 <0>        -0.1048
      8 C8         -1.8125    1.0188    1.7717 C.2       1 <0>         0.2253
      9 N1         -2.1401    1.7933    2.7795 N.2       1 <0>        -0.2776
     10 N2         -1.3269    2.7858    2.8526 N.2       1 <0>        -0.2994
     11 C9         -0.4262    2.7023    1.8988 C.2       1 <0>         0.1543
     12 N3         -0.7070    1.5792    1.1743 N.pl3     1 <0>        -0.4152
     13 C10         0.0210    1.0733    0.0081 C.3       1 <0>         0.0418
     14 C11        -0.5632    1.6699   -1.2464 C.2       1 <0>         0.4561
     15 O1         -1.4923    2.4389   -1.1738 O.co2     1 <0>        -0.6063
     16 S1          0.8944    3.8316    1.6067 S.3       1 <0>         0.0681
     17 C12         0.6008    5.0121    2.9469 C.3       1 <0>        -0.1594
     18 C13         1.6413    6.1010    2.8942 C.2       1 <0>         0.4467
     19 O2          2.4976    6.0808    2.0346 O.2       1 <0>        -0.4420
     20 C14         1.6190    7.1827    3.8797 C.2       1 <0>        -0.2144
     21 C15         2.4861    8.2370    3.9665 C.2       1 <0>         0.1260
     22 N4          2.1247    9.0101    5.0092 N.pl3     1 <0>        -0.4037
     23 C16         1.0325    8.5025    5.6295 C.2       1 <0>         0.0769
     24 C17         0.6506    7.3642    4.9824 C.2       1 <0>        -0.1568
     25 C18        -0.4873    6.4950    5.3148 C.2       1 <0>         0.5406
     26 O3         -0.3393    5.5695    6.0890 O.2       1 <0>        -0.4891
     27 O4         -1.6948    6.7241    4.7611 O.3       1 <0>        -0.3496
     28 C19        -2.7726    5.8258    5.1349 C.3       1 <0>         0.0315
     29 C20         0.3488    9.1001    6.8323 C.3       1 <0>        -0.0912
     30 C21         2.8191   10.2339    5.4171 C.3       1 <0>         0.0368
     31 C22         1.9644   11.4725    5.6934 C.3       1 <0>        -0.1657
     32 C23         2.8273   11.4037    4.4309 C.3       1 <0>        -0.1653
     33 C24         3.6531    8.4918    3.0477 C.3       1 <0>        -0.0964
     34 H1         -3.5140   -2.0124   -2.3699 H         1 <0>         0.0721
     35 H2         -1.7689   -2.1711   -2.0577 H         1 <0>         0.0719
     36 H3         -2.8667   -3.5206   -1.6810 H         1 <0>         0.0649
     37 H4         -4.2975   -3.4496    0.2746 H         1 <0>         0.1225
     38 H5         -4.6314   -2.5640    2.5450 H         1 <0>         0.1260
     39 H6         -3.4886   -0.5018    3.2464 H         1 <0>         0.1326
     40 H7         -1.6752   -0.2120   -0.6293 H         1 <0>         0.1389
     41 H8         -0.0658   -0.0125   -0.0315 H         1 <0>         0.1080
     42 H9          1.0721    1.3511    0.0872 H         1 <0>         0.1037
     43 H10        -0.3086    5.4148    2.8431 H         1 <0>         0.1117
     44 H11         0.6626    4.4965    3.9053 H         1 <0>         0.1264
     45 H12        -2.9301    5.8759    6.2123 H         1 <0>         0.0603
     46 H13        -3.6868    6.1209    4.6199 H         1 <0>         0.1014
     47 H14        -2.5099    4.8061    4.8532 H         1 <0>         0.0796
     48 H15        -0.3624    9.8589    6.5062 H         1 <0>         0.0812
     49 H16        -0.1793    8.3170    7.3764 H         1 <0>         0.0822
     50 H17         1.0937    9.5565    7.4842 H         1 <0>         0.0767
     51 H18         3.7071   10.0878    6.0320 H         1 <0>         0.1385
     52 H19         0.8855   11.3768    5.5717 H         1 <0>         0.1081
     53 H20         2.2904   12.1415    6.4898 H         1 <0>         0.1149
     54 H21         3.7206   12.0274    4.3973 H         1 <0>         0.1148
     55 H22         2.3164   11.2626    3.4785 H         1 <0>         0.1071
     56 H23         3.3269    9.1044    2.2073 H         1 <0>         0.0839
     57 H24         4.4387    9.0135    3.5943 H         1 <0>         0.0700
     58 H25         4.0379    7.5417    2.6770 H         1 <0>         0.1027
     59 O5         -0.0513    1.3471   -2.4446 O.co2     1 <0>        -0.7448
@<TRIPOS>BOND
     1    1    2 1
     2    1   34 1
     3    1   35 1
     4    1   36 1
     5    2    7 ar
     6    2    3 ar
     7    3    4 ar
     8    3   37 1
     9    4    5 ar
    10    4   38 1
    11    5    6 ar
    12    5   39 1
    13    6    7 ar
    14    6    8 1
    15    7   40 1
    16    8   12 1
    17    8    9 2
    18    9   10 1
    19   10   11 2
    20   11   12 1
    21   11   16 1
    22   12   13 1
    23   13   14 1
    24   13   41 1
    25   13   42 1
    26   14   15 2
    27   14   59 1
    28   16   17 1
    29   17   18 1
    30   17   43 1
    31   17   44 1
    32   18   19 2
    33   18   20 1
    34   20   24 1
    35   20   21 2
    36   21   22 1
    37   21   33 1
    38   22   23 1
    39   22   30 1
    40   23   24 2
    41   23   29 1
    42   24   25 1
    43   25   26 2
    44   25   27 1
    45   27   28 1
    46   28   45 1
    47   28   46 1
    48   28   47 1
    49   29   48 1
    50   29   49 1
    51   29   50 1
    52   30   32 1
    53   30   31 1
    54   30   51 1
    55   31   32 1
    56   31   52 1
    57   31   53 1
    58   32   54 1
    59   32   55 1
    60   33   56 1
    61   33   57 1
    62   33   58 1
@<TRIPOS>MOLECULE
ZINC15934773
   68    72     0     0     0
SMALL
USER_CHARGES
(5R)-5-(4-ethoxy-3-methoxy-phenyl)-3-hydroxy-1-(3-imidazol-1-ylpropyl)-4-[(2R)-2-methyl2,3-dihydrobenzofuran-5-carbonyl]-5H-pyrrol-2-one
@<TRIPOS>ATOM
      1 C1          2.7167    5.7020    6.9589 C.3       1 <0>        -0.1512
      2 C2          2.1531    4.9005    5.7838 C.3       1 <0>         0.0515
      3 O1          2.1953    5.6986    4.5991 O.3       1 <0>        -0.3085
      4 C3          1.7274    5.1309    3.4553 C.ar      1 <0>         0.0930
      5 C4          1.2382    3.8346    3.4732 C.ar      1 <0>        -0.1721
      6 C5          0.7574    3.2612    2.3108 C.ar      1 <0>        -0.0827
      7 C6          0.7736    3.9743    1.1265 C.ar      1 <0>        -0.0727
      8 C7          1.2603    5.2680    1.1018 C.ar      1 <0>        -0.1636
      9 C8          1.7385    5.8507    2.2644 C.ar      1 <0>         0.0940
     10 O2          2.2173    7.1234    2.2419 O.3       1 <0>        -0.3094
     11 C9          2.3070    7.7602    0.9658 C.3       1 <0>         0.0247
     12 C10         0.2539    3.3422   -0.1389 C.3       1 <0>         0.2694
     13 H1          0.5851    3.9554   -0.9900 H         1 <0>         0.0666
     14 C11        -1.2505    3.2160   -0.0783 C.2       1 <0>        -0.4977
     15 C12        -1.5359    1.8967   -0.1754 C.2       1 <0>         0.2634
     16 C13        -0.2750    1.1341   -0.2884 C.2       1 <0>         0.5128
     17 O3         -0.1975   -0.0744   -0.3874 O.2       1 <0>        -0.5336
     18 N1          0.7741    1.9762   -0.2712 N.am      1 <0>        -0.6110
     19 C14         2.1858    1.5969   -0.3678 C.3       1 <0>         0.1394
     20 C15         2.6094    1.5781   -1.8379 C.3       1 <0>        -0.1542
     21 C16         4.0837    1.1819   -1.9389 C.3       1 <0>         0.1052
     22 N2          4.4893    1.1639   -3.3465 N.pl3     1 <0>        -0.4544
     23 C17         4.4294    0.0917   -4.1953 C.2       1 <0>        -0.0525
     24 C18         4.8939    0.5121   -5.3874 C.2       1 <0>        -0.0349
     25 N3          5.2370    1.8031   -5.2672 N.2       1 <0>        -0.4991
     26 C19         4.9974    2.2003   -4.0474 C.2       1 <0>         0.1795
     27 O4         -2.7782    1.3607   -0.1662 O.3       1 <0>        -0.6514
     28 C20        -2.2155    4.3123    0.0528 C.2       1 <0>         0.5083
     29 O5         -2.8999    4.4039    1.0550 O.2       1 <0>        -0.4749
     30 C21        -2.3568    5.3047   -1.0307 C.ar      1 <0>        -0.1635
     31 C22        -1.6571    5.1427   -2.2306 C.ar      1 <0>        -0.0307
     32 C23        -1.7972    6.0625   -3.2421 C.ar      1 <0>        -0.1535
     33 C24        -2.6288    7.1723   -3.0786 C.ar      1 <0>         0.1172
     34 C25        -3.3124    7.3356   -1.8766 C.ar      1 <0>        -0.1923
     35 C26        -3.1873    6.4180   -0.8634 C.ar      1 <0>        -0.0250
     36 C27        -4.1028    8.6253   -1.9877 C.3       1 <0>        -0.1011
     37 C28        -3.4447    9.2986   -3.2152 C.3       1 <0>         0.0805
     38 H2         -4.1261    9.8792   -3.8544 H         1 <0>         0.1159
     39 O6         -2.9138    8.1802   -3.9459 O.3       1 <0>        -0.3008
     40 C29        -2.3225   10.2426   -2.7787 C.3       1 <0>        -0.1773
     41 H3          2.6842    5.0877    7.8708 H         1 <0>         0.0758
     42 H4          2.1132    6.6097    7.1066 H         1 <0>         0.0656
     43 H5          3.7578    5.9847    6.7441 H         1 <0>         0.0646
     44 H6          2.7566    3.9928    5.6361 H         1 <0>         0.0592
     45 H7          1.1120    4.6177    5.9986 H         1 <0>         0.0611
     46 H8          1.2285    3.2738    4.3961 H         1 <0>         0.1300
     47 H9          0.3719    2.2524    2.3271 H         1 <0>         0.1225
     48 H10         1.2682    5.8244    0.1761 H         1 <0>         0.1318
     49 H11         2.7066    8.7774    1.0909 H         1 <0>         0.0966
     50 H12         1.3068    7.8126    0.5110 H         1 <0>         0.0546
     51 H13         2.9766    7.1808    0.3132 H         1 <0>         0.0531
     52 H14         2.7997    2.3259    0.1814 H         1 <0>         0.0796
     53 H15         2.3273    0.5966    0.0674 H         1 <0>         0.0817
     54 H16         1.9954    0.8491   -2.3871 H         1 <0>         0.0777
     55 H17         2.4679    2.5784   -2.2731 H         1 <0>         0.0755
     56 H18         4.6977    1.9109   -1.3897 H         1 <0>         0.0967
     57 H19         4.2252    0.1816   -1.5037 H         1 <0>         0.0952
     58 H20         4.0753   -0.9001   -3.9558 H         1 <0>         0.1723
     59 H21         4.9802   -0.0869   -6.2820 H         1 <0>         0.1670
     60 H22         5.1754    3.1935   -3.6624 H         1 <0>         0.2019
     61 H23        -1.0081    4.2898   -2.3645 H         1 <0>         0.1415
     62 H24        -1.2572    5.9284   -4.1677 H         1 <0>         0.1278
     63 H25        -3.7286    6.5553    0.0610 H         1 <0>         0.1304
     64 H26        -5.1664    8.3913   -2.1423 H         1 <0>         0.0898
     65 H27        -3.9863    9.2077   -1.0618 H         1 <0>         0.0914
     66 H28        -1.8699   10.7091   -3.6661 H         1 <0>         0.0665
     67 H29        -1.5560    9.6732   -2.2326 H         1 <0>         0.0629
     68 H30        -2.7349   11.0241   -2.1236 H         1 <0>         0.0743
@<TRIPOS>BOND
     1    1    2 1
     2    1   41 1
     3    1   42 1
     4    1   43 1
     5    2    3 1
     6    2   44 1
     7    2   45 1
     8    3    4 1
     9    4    9 ar
    10    4    5 ar
    11    5    6 ar
    12    5   46 1
    13    6    7 ar
    14    6   47 1
    15    7    8 ar
    16    7   12 1
    17    8    9 ar
    18    8   48 1
    19    9   10 1
    20   10   11 1
    21   11   49 1
    22   11   50 1
    23   11   51 1
    24   12   13 1
    25   12   18 1
    26   12   14 1
    27   14   15 2
    28   14   28 1
    29   15   16 1
    30   15   27 1
    31   16   17 2
    32   16   18 am
    33   18   19 1
    34   19   20 1
    35   19   52 1
    36   19   53 1
    37   20   21 1
    38   20   54 1
    39   20   55 1
    40   21   22 1
    41   21   56 1
    42   21   57 1
    43   22   26 1
    44   22   23 1
    45   23   24 2
    46   23   58 1
    47   24   25 1
    48   24   59 1
    49   25   26 2
    50   26   60 1
    51   28   29 2
    52   28   30 1
    53   30   35 ar
    54   30   31 ar
    55   31   32 ar
    56   31   61 1
    57   32   33 ar
    58   32   62 1
    59   33   39 1
    60   33   34 ar
    61   34   35 ar
    62   34   36 1
    63   35   63 1
    64   36   37 1
    65   36   64 1
    66   36   65 1
    67   37   38 1
    68   37   39 1
    69   37   40 1
    70   40   66 1
    71   40   67 1
    72   40   68 1
@<TRIPOS>MOLECULE
ZINC33814317
   66    69     0     0     0
SMALL
USER_CHARGES
(4Z,5R)-5-(3,4-diethoxyphenyl)-4-[hydroxy-(2-methylimidazo[1,2-a]pyridin-3-yl)methylene]-1-(3-methoxypropyl)pyrrolidine-2,3-dione
@<TRIPOS>ATOM
      1 C1          7.0376    9.5609    1.2918 C.3       1 <0>        -0.1507
      2 C2          5.5430    9.4215    1.5879 C.3       1 <0>         0.0521
      3 O1          5.1906    8.0369    1.6186 O.3       1 <0>        -0.3070
      4 C3          3.8885    7.7368    1.8713 C.ar      1 <0>         0.0938
      5 C4          2.9706    8.7525    2.0854 C.ar      1 <0>        -0.1721
      6 C5          1.6465    8.4457    2.3375 C.ar      1 <0>        -0.0870
      7 C6          1.2368    7.1263    2.3870 C.ar      1 <0>        -0.0696
      8 C7          2.1474    6.1080    2.1744 C.ar      1 <0>        -0.1548
      9 C8          3.4751    6.4088    1.9160 C.ar      1 <0>         0.1077
     10 O2          4.3721    5.4084    1.7061 O.3       1 <0>        -0.3038
     11 C9          3.8853    4.0687    1.8081 C.3       1 <0>         0.0510
     12 C10         5.0529    3.0899    1.6674 C.3       1 <0>        -0.1477
     13 C11        -0.2069    6.7973    2.6674 C.3       1 <0>         0.2636
     14 H1         -0.2852    5.7186    2.8681 H         1 <0>         0.0573
     15 C12        -1.0705    7.2216    1.5021 C.2       1 <0>        -0.4947
     16 C13        -0.9890    6.7614    0.1907 C.2       1 <0>         0.4154
     17 C14        -0.1053    5.7131   -0.1344 C.2       1 <0>        -0.0455
     18 C15         1.0560    5.8063   -0.8969 C.2       1 <0>         0.1071
     19 N1          1.5986    4.6044   -0.9688 N.2       1 <0>        -0.4860
     20 C16         0.8535    3.7283   -0.2932 C.2       1 <0>         0.2025
     21 N2         -0.2185    4.3854    0.2410 N.pl3     1 <0>        -0.3345
     22 C17        -1.1420    3.7186    0.9826 C.2       1 <0>         0.0711
     23 C18        -1.0202    2.3885    1.2021 C.2       1 <0>        -0.1550
     24 C19         0.0703    1.6861    0.6730 C.2       1 <0>        -0.1101
     25 C20         1.0012    2.3486   -0.0725 C.2       1 <0>        -0.0842
     26 C21         1.5998    7.0613   -1.5296 C.3       1 <0>        -0.0728
     27 O3         -1.7579    7.3205   -0.7711 O.2       1 <0>        -0.5942
     28 C22        -1.9653    8.1663    2.0032 C.2       1 <0>         0.3741
     29 O4         -2.8262    8.7451    1.3611 O.3       1 <0>        -0.4785
     30 C23        -1.6919    8.3478    3.4513 C.2       1 <0>         0.4776
     31 O5         -2.2993    9.1010    4.1852 O.2       1 <0>        -0.5293
     32 N3         -0.6774    7.5530    3.8324 N.am      1 <0>        -0.5985
     33 C24        -0.1278    7.4616    5.1873 C.3       1 <0>         0.1376
     34 C25         0.9973    8.4854    5.3513 C.3       1 <0>        -0.1451
     35 C26         1.5714    8.3901    6.7663 C.3       1 <0>         0.0661
     36 O6          2.6221    9.3463    6.9195 O.3       1 <0>        -0.3883
     37 C27         3.2296    9.3401    8.2130 C.3       1 <0>         0.0297
     38 H2          7.3087   10.6267    1.2681 H         1 <0>         0.0748
     39 H3          7.2624    9.1036    0.3170 H         1 <0>         0.0655
     40 H4          7.6159    9.0527    2.0774 H         1 <0>         0.0639
     41 H5          5.3181    9.8788    2.5627 H         1 <0>         0.0590
     42 H6          4.9646    9.9297    0.8023 H         1 <0>         0.0601
     43 H7          3.2890    9.7840    2.0513 H         1 <0>         0.1292
     44 H8          0.9312    9.2384    2.5001 H         1 <0>         0.1193
     45 H9          1.8238    5.0782    2.2092 H         1 <0>         0.1195
     46 H10         3.4039    3.9270    2.7870 H         1 <0>         0.0496
     47 H11         3.1527    3.8829    1.0089 H         1 <0>         0.0711
     48 H12         4.6783    2.0586    1.7459 H         1 <0>         0.0737
     49 H13         5.7854    3.2757    2.4667 H         1 <0>         0.0609
     50 H14         5.5343    3.2317    0.6886 H         1 <0>         0.0667
     51 H15        -1.9834    4.2542    1.3969 H         1 <0>         0.1616
     52 H16        -1.7628    1.8687    1.7893 H         1 <0>         0.1463
     53 H17         0.1710    0.6256    0.8504 H         1 <0>         0.1364
     54 H18         1.8443    1.8174   -0.4888 H         1 <0>         0.1442
     55 H19         2.5291    6.8268   -2.0694 H         1 <0>         0.0704
     56 H20         1.8082    7.8058   -0.7471 H         1 <0>         0.0732
     57 H21         0.8590    7.4674   -2.2341 H         1 <0>         0.0788
     58 H22         0.2701    6.4497    5.3541 H         1 <0>         0.0756
     59 H23        -0.9218    7.6688    5.9198 H         1 <0>         0.0809
     60 H24         1.7913    8.2782    4.6188 H         1 <0>         0.0861
     61 H25         0.5995    9.4973    5.1845 H         1 <0>         0.0751
     62 H26         0.7773    8.5972    7.4988 H         1 <0>         0.0489
     63 H27         1.9692    7.3782    6.9332 H         1 <0>         0.0479
     64 H28         4.0240   10.1003    8.2486 H         1 <0>         0.0846
     65 H29         3.6622    8.3482    8.4101 H         1 <0>         0.0396
     66 H30         2.4703    9.5672    8.9758 H         1 <0>         0.0399
@<TRIPOS>BOND
     1    1    2 1
     2    1   38 1
     3    1   39 1
     4    1   40 1
     5    2    3 1
     6    2   41 1
     7    2   42 1
     8    3    4 1
     9    4    9 ar
    10    4    5 ar
    11    5    6 ar
    12    5   43 1
    13    6    7 ar
    14    6   44 1
    15    7    8 ar
    16    7   13 1
    17    8    9 ar
    18    8   45 1
    19    9   10 1
    20   10   11 1
    21   11   12 1
    22   11   46 1
    23   11   47 1
    24   12   48 1
    25   12   49 1
    26   12   50 1
    27   13   15 1
    28   13   32 1
    29   13   14 1
    30   15   28 2
    31   15   16 1
    32   16   27 2
    33   16   17 1
    34   17   21 1
    35   17   18 2
    36   18   19 1
    37   18   26 1
    38   19   20 2
    39   20   25 1
    40   20   21 1
    41   21   22 1
    42   22   23 2
    43   22   51 1
    44   23   24 1
    45   23   52 1
    46   24   25 2
    47   24   53 1
    48   25   54 1
    49   26   55 1
    50   26   56 1
    51   26   57 1
    52   28   30 1
    53   28   29 1
    54   30   32 am
    55   30   31 2
    56   32   33 1
    57   33   34 1
    58   33   58 1
    59   33   59 1
    60   34   35 1
    61   34   60 1
    62   34   61 1
    63   35   36 1
    64   35   62 1
    65   35   63 1
    66   36   37 1
    67   37   64 1
    68   37   65 1
    69   37   66 1
@<TRIPOS>MOLECULE
ZINC06173175
   56    60     0     0     0
SMALL
USER_CHARGES

@<TRIPOS>ATOM
      1 C1         -0.0167    1.3781    0.0096 C.ar      1 <0>        -0.1137
      2 C2          1.1709    2.0855    0.0021 C.ar      1 <0>        -0.1174
      3 C3          2.3773    1.4107   -0.0130 C.ar      1 <0>        -0.1048
      4 C4          2.3960    0.0285   -0.0201 C.ar      1 <0>        -0.0899
      5 C5          1.2084   -0.6789   -0.0117 C.ar      1 <0>        -0.1061
      6 C6          0.0021   -0.0041    0.0020 C.ar      1 <0>        -0.1190
      7 C7          3.7112   -0.7071   -0.0376 C.3       1 <0>        -0.5910
      8 S1          4.2568   -1.0108    1.6656 S.o2      1 <0>         2.6053
      9 O1          4.5927    0.2165    2.2981 O.2       1 <0>        -0.9442
     10 O2          3.3873   -1.9386    2.3000 O.2       1 <0>        -0.9513
     11 N1          5.6959   -1.8160    1.5142 N.pl3     1 <0>        -0.9963
     12 C8          5.7288   -3.2830    1.4406 C.3       1 <0>         0.1151
     13 C9          6.6888   -3.8091    2.5123 C.3       1 <0>        -0.1275
     14 C10         8.0546   -3.1404    2.3407 C.3       1 <0>        -0.1060
     15 C11         7.9102   -1.6276    2.5221 C.3       1 <0>        -0.0166
     16 H1          7.5022   -1.4171    3.5106 H         1 <0>         0.0940
     17 C12         6.9637   -1.0766    1.4448 C.3       1 <0>         0.1278
     18 C13         9.2610   -0.9735    2.3857 C.ar      1 <0>         0.4040
     19 N2          9.7397   -0.2907    3.4031 N.ar      1 <0>        -0.6143
     20 C14        10.9277    0.3008    3.3227 C.ar      1 <0>         0.3368
     21 C15        11.6701    0.1880    2.1331 C.ar      1 <0>        -0.1887
     22 C16        11.1129   -0.5537    1.0749 C.ar      1 <0>         0.5116
     23 N3          9.9230   -1.1116    1.2506 N.ar      1 <0>        -0.6183
     24 O3         11.7789   -0.6978   -0.0951 O.3       1 <0>        -0.6442
     25 N4         12.8197    0.8648    2.2997 N.2       1 <0>        -0.1684
     26 N5         12.8607    1.3852    3.4767 N.2       1 <0>        -0.0797
     27 N6         11.6855    1.0597    4.1707 N.pl3     1 <0>        -0.3982
     28 C17        11.3381    1.4559    5.5376 C.3       1 <0>         0.1851
     29 C18        11.8394    0.4149    6.5051 C.ar      1 <0>        -0.1218
     30 C19        11.0321   -0.6529    6.8503 C.ar      1 <0>        -0.0596
     31 C20        11.4910   -1.6084    7.7371 C.ar      1 <0>        -0.1583
     32 C21        12.7598   -1.4959    8.2799 C.ar      1 <0>         0.1017
     33 C22        13.5674   -0.4260    7.9334 C.ar      1 <0>        -0.1606
     34 C23        13.1084    0.5255    7.0423 C.ar      1 <0>        -0.0638
     35 F1         13.2092   -2.4291    9.1472 F         1 <0>        -0.1422
     36 H2         -0.9591    1.9053    0.0259 H         1 <0>         0.1258
     37 H3          1.1563    3.1654    0.0076 H         1 <0>         0.1286
     38 H4          3.3051    1.9634   -0.0196 H         1 <0>         0.1317
     39 H5          1.2231   -1.7588   -0.0176 H         1 <0>         0.1300
     40 H6         -0.9258   -0.5567    0.0082 H         1 <0>         0.1279
     41 H7          3.5884   -1.6586   -0.5549 H         1 <0>         0.1406
     42 H8          4.4573   -0.1052   -0.5563 H         1 <0>         0.1428
     43 H9          4.7295   -3.6803    1.6184 H         1 <0>         0.0907
     44 H10         6.0770   -3.5917    0.4549 H         1 <0>         0.0731
     45 H11         6.2922   -3.5780    3.5010 H         1 <0>         0.0680
     46 H12         6.7963   -4.8885    2.4062 H         1 <0>         0.0768
     47 H13         8.7466   -3.5312    3.0867 H         1 <0>         0.0646
     48 H14         8.4394   -3.3514    1.3429 H         1 <0>         0.0821
     49 H15         7.4105   -1.2090    0.4595 H         1 <0>         0.0903
     50 H16         6.7794   -0.0175    1.6254 H         1 <0>         0.0921
     51 H17        11.7999    2.4165    5.7660 H         1 <0>         0.1020
     52 H18        10.2552    1.5431    5.6266 H         1 <0>         0.1047
     53 H19        10.0423   -0.7402    6.4271 H         1 <0>         0.1416
     54 H20        10.8600   -2.4423    8.0069 H         1 <0>         0.1357
     55 H21        14.5572   -0.3370    8.3563 H         1 <0>         0.1350
     56 H22        13.7399    1.3577    6.7685 H         1 <0>         0.1360
@<TRIPOS>BOND
     1    1    6 ar
     2    1    2 ar
     3    1   36 1
     4    2    3 ar
     5    2   37 1
     6    3    4 ar
     7    3   38 1
     8    4    5 ar
     9    4    7 1
    10    5    6 ar
    11    5   39 1
    12    6   40 1
    13    7    8 1
    14    7   41 1
    15    7   42 1
    16    8    9 2
    17    8   10 2
    18    8   11 1
    19   11   17 1
    20   11   12 1
    21   12   13 1
    22   12   43 1
    23   12   44 1
    24   13   14 1
    25   13   45 1
    26   13   46 1
    27   14   15 1
    28   14   47 1
    29   14   48 1
    30   15   16 1
    31   15   17 1
    32   15   18 1
    33   17   49 1
    34   17   50 1
    35   18   23 ar
    36   18   19 ar
    37   19   20 ar
    38   20   27 1
    39   20   21 ar
    40   21   22 ar
    41   21   25 1
    42   22   23 ar
    43   22   24 1
    44   25   26 2
    45   26   27 1
    46   27   28 1
    47   28   29 1
    48   28   51 1
    49   28   52 1
    50   29   34 ar
    51   29   30 ar
    52   30   31 ar
    53   30   53 1
    54   31   32 ar
    55   31   54 1
    56   32   33 ar
    57   32   35 1
    58   33   34 ar
    59   33   55 1
    60   34   56 1
@<TRIPOS>MOLECULE
ZINC25193764
   65    66     0     0     0
SMALL
USER_CHARGES

@<TRIPOS>ATOM
      1 C1         -1.4942   -0.3310   -0.1148 C.3       1 <0>        -0.1600
      2 C2          0.0019   -0.0356    0.0089 C.3       1 <0>        -0.1144
      3 C3          0.7460   -0.6700   -1.1679 C.3       1 <0>         0.1508
      4 H1          0.3670   -0.2595   -2.1039 H         1 <0>         0.0699
      5 C4          0.5362   -2.1873   -1.1503 C.3       1 <0>        -0.1330
      6 C5          1.3932   -2.8295   -2.2436 C.3       1 <0>        -0.1197
      7 C6          2.8714   -2.5430   -1.9696 C.3       1 <0>        -0.1355
      8 C7          3.1076   -1.0297   -1.9965 C.3       1 <0>         0.1034
      9 N1          2.1831   -0.3870   -1.0521 N.am      1 <0>        -0.6123
     10 C8          2.6447    0.4431   -0.0959 C.2       1 <0>         0.5186
     11 O1          1.8874    0.8811    0.7441 O.2       1 <0>        -0.4988
     12 C9          4.1017    0.8271   -0.0705 C.3       1 <0>         0.0462
     13 O2          4.3207    1.7978    0.9551 O.3       1 <0>        -0.3319
     14 C10         5.5523    2.3244    1.0428 C.2       1 <0>         0.4603
     15 O3          6.3902    2.0417    0.2195 O.2       1 <0>        -0.5043
     16 C11         5.8898    3.2681    2.1682 C.3       1 <0>         0.1158
     17 H2          5.1579    4.0758    2.1636 H         1 <0>         0.0693
     18 C12         5.7541    2.5124    3.4778 C.2       1 <0>        -0.3911
     19 C13         6.8748    2.4406    4.2901 C.2       1 <0>         0.2576
     20 N2          8.0200    3.0010    3.9537 N.2       1 <0>        -0.6454
     21 C14         8.2423    3.6770    2.8435 C.2       1 <0>         0.3108
     22 C15         7.2576    3.8659    1.8917 C.2       1 <0>        -0.3808
     23 C16         7.5125    4.5799    0.7263 C.2       1 <0>         0.4971
     24 O4          8.7231    5.0933    0.5107 O.3       1 <0>        -0.6340
     25 O5          6.5348    4.7529   -0.1858 O.3       1 <0>        -0.3382
     26 C17         6.8670    5.4968   -1.3598 C.3       1 <0>         0.0687
     27 C18         5.6406    5.5873   -2.2702 C.3       1 <0>        -0.1497
     28 C19         9.6118    4.2589    2.6050 C.3       1 <0>        -0.0885
     29 C20         6.7814    1.6994    5.5989 C.3       1 <0>        -0.1056
     30 C21         4.5536    1.9166    3.8478 C.2       1 <0>         0.5485
     31 O6          3.5145    2.6735    4.1986 O.2       1 <0>        -0.5774
     32 O7          4.4408    0.5731    3.8516 O.3       1 <0>        -0.3267
     33 C22         3.1495    0.0313    4.1361 C.3       1 <0>         0.0554
     34 C23         3.2431   -1.4936    4.2183 C.3       1 <0>        -0.1471
     35 H3         -1.8887    0.1581   -1.0055 H         1 <0>         0.0486
     36 H4         -1.6467   -1.4074   -0.1937 H         1 <0>         0.0516
     37 H5         -2.0131    0.0458    0.7666 H         1 <0>         0.0558
     38 H6          0.1612    1.0427    0.0007 H         1 <0>         0.0866
     39 H7          0.3783   -0.4515    0.9434 H         1 <0>         0.0760
     40 H8          0.8295   -2.5839   -0.1783 H         1 <0>         0.0677
     41 H9         -0.5147   -2.4115   -1.3332 H         1 <0>         0.0764
     42 H10         1.2271   -3.9068   -2.2494 H         1 <0>         0.0651
     43 H11         1.1164   -2.4144   -3.2127 H         1 <0>         0.0635
     44 H12         3.1427   -2.9362   -0.9899 H         1 <0>         0.0686
     45 H13         3.4825   -3.0203   -2.7357 H         1 <0>         0.0766
     46 H14         4.1358   -0.8151   -1.7049 H         1 <0>         0.0858
     47 H15         2.9235   -0.6489   -3.0012 H         1 <0>         0.0714
     48 H16         4.7069   -0.0569    0.1307 H         1 <0>         0.0878
     49 H17         4.3834    1.2482   -1.0356 H         1 <0>         0.0887
     50 H18         7.1840    6.5004   -1.0764 H         1 <0>         0.0588
     51 H19         7.6770    4.9961   -1.8902 H         1 <0>         0.0587
     52 H20         4.8306    6.0880   -1.7399 H         1 <0>         0.0617
     53 H21         5.8940    6.1548   -3.1657 H         1 <0>         0.0707
     54 H22         5.3236    4.5837   -2.5536 H         1 <0>         0.0592
     55 H23        10.2611    4.0167    3.4464 H         1 <0>         0.0489
     56 H24        10.0306    3.8392    1.6903 H         1 <0>         0.0803
     57 H25         9.5343    5.3416    2.5057 H         1 <0>         0.0799
     58 H26         7.1279    0.6750    5.4618 H         1 <0>         0.0743
     59 H27         7.4033    2.1967    6.3433 H         1 <0>         0.0734
     60 H28         5.7456    1.6902    5.9382 H         1 <0>         0.0575
     61 H29         2.7918    0.4251    5.0875 H         1 <0>         0.0621
     62 H30         2.4556    0.3106    3.3433 H         1 <0>         0.0736
     63 H31         3.5151   -1.8941    3.2417 H         1 <0>         0.0585
     64 H32         4.0020   -1.7722    4.9494 H         1 <0>         0.0627
     65 H33         2.2788   -1.9010    4.5223 H         1 <0>         0.0715
@<TRIPOS>BOND
     1    1    2 1
     2    1   35 1
     3    1   36 1
     4    1   37 1
     5    2    3 1
     6    2   38 1
     7    2   39 1
     8    3    4 1
     9    3    9 1
    10    3    5 1
    11    5    6 1
    12    5   40 1
    13    5   41 1
    14    6    7 1
    15    6   42 1
    16    6   43 1
    17    7    8 1
    18    7   44 1
    19    7   45 1
    20    8    9 1
    21    8   46 1
    22    8   47 1
    23    9   10 am
    24   10   11 2
    25   10   12 1
    26   12   13 1
    27   12   48 1
    28   12   49 1
    29   13   14 1
    30   14   15 2
    31   14   16 1
    32   16   17 1
    33   16   22 1
    34   16   18 1
    35   18   19 2
    36   18   30 1
    37   19   20 1
    38   19   29 1
    39   20   21 2
    40   21   22 1
    41   21   28 1
    42   22   23 2
    43   23   24 1
    44   23   25 1
    45   25   26 1
    46   26   27 1
    47   26   50 1
    48   26   51 1
    49   27   52 1
    50   27   53 1
    51   27   54 1
    52   28   55 1
    53   28   56 1
    54   28   57 1
    55   29   58 1
    56   29   59 1
    57   29   60 1
    58   30   31 2
    59   30   32 1
    60   32   33 1
    61   33   34 1
    62   33   61 1
    63   33   62 1
    64   34   63 1
    65   34   64 1
    66   34   65 1
@<TRIPOS>MOLECULE
ZINC13057534
   55    58     0     0     0
SMALL
USER_CHARGES
6-methyl-4-oxo-3-[2-oxo-2-(4-styrylsulfonylpiperazin-1-yl)ethyl]furo[5,4-d]pyrimidine-5-carboxylic acid
@<TRIPOS>ATOM
      1 C1          5.3019   -2.6013   12.2854 C.3       1 <0>        -0.0596
      2 C2          4.9996   -1.7752   11.0618 C.2       1 <0>        -0.0072
      3 C3          3.8304   -1.8050   10.3631 C.2       1 <0>        -0.1028
      4 C4          4.0028   -0.8404    9.2642 C.2       1 <0>        -0.2531
      5 C5          5.2868   -0.3170    9.4173 C.2       1 <0>         0.2475
      6 O1          5.8392   -0.8996   10.4944 O.3       1 <0>        -0.1559
      7 N1          5.7213    0.6017    8.5409 N.2       1 <0>        -0.4976
      8 C6          4.9700    1.0098    7.5570 C.2       1 <0>         0.3859
      9 N2          3.7148    0.5376    7.3572 N.am      1 <0>        -0.5266
     10 C7          3.1967   -0.3875    8.1979 C.2       1 <0>         0.5660
     11 O2          2.0684   -0.8201    8.0366 O.2       1 <0>        -0.4976
     12 C8          2.9165    1.0338    6.2335 C.3       1 <0>         0.0777
     13 C9          3.1628    0.1711    5.0227 C.2       1 <0>         0.5042
     14 O3          3.9296   -0.7660    5.0916 O.2       1 <0>        -0.5126
     15 N3          2.5309    0.4409    3.8632 N.am      1 <0>        -0.6096
     16 C10         2.7613   -0.3918    2.6744 C.3       1 <0>         0.0966
     17 C11         3.2099    0.5141    1.5210 C.3       1 <0>         0.1067
     18 N4          2.2776    1.6460    1.4230 N.pl3     1 <0>        -0.9978
     19 C12         2.0514    2.4821    2.6103 C.3       1 <0>         0.1055
     20 C13         1.5986    1.5728    3.7652 C.3       1 <0>         0.0869
     21 S1          1.5012    1.9775   -0.0017 S.o2      1 <0>         2.6833
     22 O4          2.2987    1.4212   -1.0378 O.2       1 <0>        -0.9534
     23 O5          1.1538    3.3548    0.0361 O.2       1 <0>        -0.9599
     24 C14        -0.0126    1.0758    0.0080 C.2       1 <0>        -0.7560
     25 C15        -1.1695    1.7230    0.0170 C.2       1 <0>         0.0621
     26 C16        -2.4394    0.9666    0.0189 C.ar      1 <0>        -0.1009
     27 C17        -2.4240   -0.4286    0.0054 C.ar      1 <0>        -0.0864
     28 C18        -3.6128   -1.1288    0.0131 C.ar      1 <0>        -0.1248
     29 C19        -4.8185   -0.4504    0.0221 C.ar      1 <0>        -0.0972
     30 C20        -4.8407    0.9328    0.0301 C.ar      1 <0>        -0.1261
     31 C21        -3.6589    1.6448    0.0283 C.ar      1 <0>        -0.0870
     32 C22         2.6448   -2.6274   10.6473 C.2       1 <0>         0.5261
     33 O6          2.5392   -3.7328   10.1530 O.co2     1 <0>        -0.6192
     34 H1          5.7507   -3.5475   11.9832 H         1 <0>         0.0815
     35 H2          5.9956   -2.0588   12.9277 H         1 <0>         0.0752
     36 H3          4.3780   -2.7950   12.8303 H         1 <0>         0.0973
     37 H4          5.3617    1.7509    6.8760 H         1 <0>         0.2121
     38 H5          3.2019    2.0620    6.0112 H         1 <0>         0.1277
     39 H6          1.8591    0.9988    6.4956 H         1 <0>         0.1325
     40 H7          1.8380   -0.9024    2.4007 H         1 <0>         0.0746
     41 H8          3.5375   -1.1276    2.8848 H         1 <0>         0.1087
     42 H9          3.2002   -0.0496    0.5881 H         1 <0>         0.1053
     43 H10         4.2165    0.8849    1.7139 H         1 <0>         0.0846
     44 H11         2.9770    2.9896    2.8820 H         1 <0>         0.0858
     45 H12         1.2766    3.2184    2.3969 H         1 <0>         0.1068
     46 H13         0.5925    1.2021    3.5693 H         1 <0>         0.0819
     47 H14         1.6060    2.1347    4.6992 H         1 <0>         0.1004
     48 H15         0.0021   -0.0041    0.0020 H         1 <0>         0.1618
     49 H16        -1.1842    2.8029    0.0229 H         1 <0>         0.1451
     50 H17        -1.4834   -0.9593   -0.0068 H         1 <0>         0.1286
     51 H18        -3.6022   -2.2087    0.0073 H         1 <0>         0.1291
     52 H19        -5.7464   -1.0031    0.0232 H         1 <0>         0.1275
     53 H20        -5.7852    1.4565    0.0374 H         1 <0>         0.1292
     54 H21        -3.6775    2.7246    0.0346 H         1 <0>         0.1314
     55 O7          1.6751   -2.1552   11.4560 O.co2     1 <0>        -0.7447
@<TRIPOS>BOND
     1    1    2 1
     2    1   34 1
     3    1   35 1
     4    1   36 1
     5    2    6 1
     6    2    3 2
     7    3    4 1
     8    3   32 1
     9    4   10 1
    10    4    5 2
    11    5    6 1
    12    5    7 1
    13    7    8 2
    14    8    9 1
    15    8   37 1
    16    9   10 am
    17    9   12 1
    18   10   11 2
    19   12   13 1
    20   12   38 1
    21   12   39 1
    22   13   14 2
    23   13   15 am
    24   15   20 1
    25   15   16 1
    26   16   17 1
    27   16   40 1
    28   16   41 1
    29   17   18 1
    30   17   42 1
    31   17   43 1
    32   18   19 1
    33   18   21 1
    34   19   20 1
    35   19   44 1
    36   19   45 1
    37   20   46 1
    38   20   47 1
    39   21   22 2
    40   21   23 2
    41   21   24 1
    42   24   25 2
    43   24   48 1
    44   25   26 1
    45   25   49 1
    46   26   31 ar
    47   26   27 ar
    48   27   28 ar
    49   27   50 1
    50   28   29 ar
    51   28   51 1
    52   29   30 ar
    53   29   52 1
    54   30   31 ar
    55   30   53 1
    56   31   54 1
    57   32   33 2
    58   32   55 1
@<TRIPOS>MOLECULE
ZINC13436230
   59    62     0     0     0
SMALL
USER_CHARGES
(2R)-4-[3-ethoxy-4-(2-morpholino-2-oxo-ethoxy)benzoyl]-2,3-dihydro-1,4-benzoxazine-2-carboxylic acid
@<TRIPOS>ATOM
      1 C1          1.0439   11.5107    1.2720 C.3       1 <0>        -0.1497
      2 C2          1.2303   10.0086    1.0487 C.3       1 <0>         0.0495
      3 O1         -0.0439    9.3621    1.0705 O.3       1 <0>        -0.2991
      4 C3         -0.0559    8.0147    0.8858 C.ar      1 <0>         0.1034
      5 C4          1.1299    7.3340    0.6888 C.ar      1 <0>        -0.1166
      6 C5          1.1140    5.9495    0.4998 C.ar      1 <0>        -0.1262
      7 C6         -0.1016    5.2607    0.5052 C.ar      1 <0>        -0.0766
      8 C7         -1.2803    5.9450    0.7079 C.ar      1 <0>        -0.1743
      9 C8         -1.2647    7.3205    0.8957 C.ar      1 <0>         0.1244
     10 O2         -2.4296    7.9911    1.0890 O.3       1 <0>        -0.2739
     11 C9         -3.6313    7.2179    1.0875 C.3       1 <0>         0.0368
     12 C10        -4.8128    8.1253    1.3147 C.2       1 <0>         0.5233
     13 O3         -4.6426    9.3169    1.4633 O.2       1 <0>        -0.5087
     14 N1         -6.0587    7.6127    1.3527 N.am      1 <0>        -0.6172
     15 C11        -6.2907    6.1713    1.1689 C.3       1 <0>         0.0666
     16 C12        -7.1798    5.6782    2.3218 C.3       1 <0>         0.0470
     17 O4         -8.3447    6.5031    2.4014 O.3       1 <0>        -0.3780
     18 C13        -8.0717    7.8741    2.7011 C.3       1 <0>         0.0480
     19 C14        -7.2278    8.4788    1.5732 C.3       1 <0>         0.0786
     20 C15         2.3779    5.2173    0.2890 C.2       1 <0>         0.5697
     21 O5          3.3515    5.4764    0.9700 O.2       1 <0>        -0.5202
     22 N2          2.4531    4.2615   -0.6582 N.am      1 <0>        -0.5432
     23 C16         1.2738    3.8853   -1.4566 C.3       1 <0>         0.0778
     24 C17         1.7345    3.7107   -2.9107 C.3       1 <0>         0.0358
     25 H1          2.1294    4.6546   -3.2868 H         1 <0>         0.0790
     26 O6          2.7570    2.7126   -2.9536 O.3       1 <0>        -0.2836
     27 C18         3.7876    2.8239   -2.0747 C.ar      1 <0>         0.1086
     28 C19         3.6587    3.5890   -0.9181 C.ar      1 <0>         0.0676
     29 C20         4.7157    3.6887   -0.0278 C.ar      1 <0>        -0.1179
     30 C21         5.9022    3.0286   -0.2905 C.ar      1 <0>        -0.1457
     31 C22         6.0313    2.2657   -1.4361 C.ar      1 <0>        -0.1049
     32 C23         4.9812    2.1660   -2.3297 C.ar      1 <0>        -0.1376
     33 C24         0.5687    3.2764   -3.7612 C.2       1 <0>         0.4792
     34 O7          0.5686    2.1816   -4.2724 O.co2     1 <0>        -0.6027
     35 H2          2.0158   12.0038    1.2554 H         1 <0>         0.0774
     36 H3          0.4151   11.9203    0.4814 H         1 <0>         0.0671
     37 H4          0.5679   11.6781    2.2382 H         1 <0>         0.0660
     38 H5          1.8590    9.5990    1.8393 H         1 <0>         0.0633
     39 H6          1.7062    9.8412    0.0825 H         1 <0>         0.0631
     40 H7          2.0671    7.8706    0.6805 H         1 <0>         0.1452
     41 H8         -0.1170    4.1914    0.3546 H         1 <0>         0.1400
     42 H9         -2.2188    5.4107    0.7163 H         1 <0>         0.1435
     43 H10        -3.7388    6.7153    0.1262 H         1 <0>         0.1006
     44 H11        -3.5860    6.4743    1.8832 H         1 <0>         0.0949
     45 H12        -6.7910    5.9985    0.2160 H         1 <0>         0.0876
     46 H13        -5.3385    5.6411    1.1855 H         1 <0>         0.0959
     47 H14        -6.6284    5.7353    3.2603 H         1 <0>         0.0584
     48 H15        -7.4767    4.6460    2.1362 H         1 <0>         0.1110
     49 H16        -7.5235    7.9392    3.6409 H         1 <0>         0.0572
     50 H17        -9.0101    8.4218    2.7874 H         1 <0>         0.1088
     51 H18        -6.8963    9.4775    1.8577 H         1 <0>         0.1038
     52 H19        -7.8208    8.5345    0.6603 H         1 <0>         0.0798
     53 H20         0.5217    4.6722   -1.3989 H         1 <0>         0.1227
     54 H21         0.8580    2.9486   -1.0854 H         1 <0>         0.0887
     55 H22         4.6130    4.2805    0.8698 H         1 <0>         0.1681
     56 H23         6.7272    3.1055    0.4023 H         1 <0>         0.1225
     57 H24         6.9583    1.7489   -1.6361 H         1 <0>         0.1245
     58 H25         5.0890    1.5715   -3.2249 H         1 <0>         0.1333
     59 O8         -0.4695    4.1058   -3.9510 O.co2     1 <0>        -0.7425
@<TRIPOS>BOND
     1    1    2 1
     2    1   35 1
     3    1   36 1
     4    1   37 1
     5    2    3 1
     6    2   38 1
     7    2   39 1
     8    3    4 1
     9    4    9 ar
    10    4    5 ar
    11    5    6 ar
    12    5   40 1
    13    6    7 ar
    14    6   20 1
    15    7    8 ar
    16    7   41 1
    17    8    9 ar
    18    8   42 1
    19    9   10 1
    20   10   11 1
    21   11   12 1
    22   11   43 1
    23   11   44 1
    24   12   13 2
    25   12   14 am
    26   14   19 1
    27   14   15 1
    28   15   16 1
    29   15   45 1
    30   15   46 1
    31   16   17 1
    32   16   47 1
    33   16   48 1
    34   17   18 1
    35   18   19 1
    36   18   49 1
    37   18   50 1
    38   19   51 1
    39   19   52 1
    40   20   21 2
    41   20   22 am
    42   22   28 1
    43   22   23 1
    44   23   24 1
    45   23   53 1
    46   23   54 1
    47   24   25 1
    48   24   26 1
    49   24   33 1
    50   26   27 1
    51   27   32 ar
    52   27   28 ar
    53   28   29 ar
    54   29   30 ar
    55   29   55 1
    56   30   31 ar
    57   30   56 1
    58   31   32 ar
    59   31   57 1
    60   32   58 1
    61   33   34 2
    62   33   59 1
@<TRIPOS>MOLECULE
ZINC33162106
   55    58     0     0     0
SMALL
USER_CHARGES
2-[(5E)-5-[[2-[4-(2-hydroxyethyl)piperazin-1-yl]-9-methyl-4-oxo-pyrido[1,2-a]pyrimidin-3-yl]methylene]-4-oxo-2-thioxo-thiazolidin-3-yl]acetic acid
@<TRIPOS>ATOM
      1 C1         -4.2771    0.4445    8.3449 C.3       1 <0>        -0.0906
      2 C2         -3.6189    1.0888    7.1522 C.2       1 <0>        -0.1144
      3 C3         -2.7246    2.1030    7.3264 C.2       1 <0>        -0.0274
      4 C4         -2.1211    2.6925    6.2072 C.2       1 <0>        -0.1718
      5 C5         -2.4255    2.2564    4.9642 C.2       1 <0>         0.1125
      6 N1         -3.3180    1.2426    4.7794 N.am      1 <0>        -0.4243
      7 C6         -3.9233    0.6483    5.8516 C.2       1 <0>         0.4246
      8 N2         -4.7994   -0.3438    5.6912 N.2       1 <0>        -0.5715
      9 C7         -5.1261   -0.7954    4.4889 C.2       1 <0>         0.4248
     10 C8         -4.5272   -0.2225    3.3423 C.2       1 <0>        -0.3200
     11 C9         -3.5993    0.8306    3.5244 C.2       1 <0>         0.5425
     12 O1         -3.0626    1.3567    2.5646 O.2       1 <0>        -0.4947
     13 C10        -4.8520   -0.6864    2.0463 C.2       1 <0>         0.1383
     14 C11        -5.5184    0.1279    1.1770 C.2       1 <0>        -0.2252
     15 C12        -6.0175    1.4471    1.3732 C.2       1 <0>         0.5477
     16 O2         -5.8778    2.0175    2.4409 O.2       1 <0>        -0.4607
     17 N3         -6.6370    2.0352    0.3647 N.am      1 <0>        -0.4905
     18 C13        -6.7971    1.4002   -0.8178 C.2       1 <0>         0.3127
     19 S1         -7.5644    1.9605   -2.2420 S.2       1 <0>        -0.3643
     20 S2         -6.0027   -0.1715   -0.5175 S.3       1 <0>         0.0253
     21 C14        -7.1627    3.3923    0.5326 C.3       1 <0>         0.0364
     22 C15        -6.1053    4.3925    0.1419 C.2       1 <0>         0.4672
     23 O3         -5.0236    4.0109   -0.2378 O.co2     1 <0>        -0.6193
     24 O4         -6.3672    5.7072    0.2105 O.co2     1 <0>        -0.7511
     25 N4         -6.0389   -1.8188    4.3567 N.pl3     1 <0>        -0.4726
     26 C16        -7.2525   -1.3565    3.6688 C.3       1 <0>         0.0556
     27 C17        -8.2052   -2.5379    3.4714 C.3       1 <0>         0.0580
     28 N5         -8.5347   -3.1219    4.7791 N.3       1 <0>        -0.5288
     29 C18        -7.3212   -3.5843    5.4670 C.3       1 <0>         0.0513
     30 C19        -6.3684   -2.4029    5.6644 C.3       1 <0>         0.0666
     31 C20        -9.5081   -4.2131    4.6381 C.3       1 <0>         0.0531
     32 C21       -10.0906   -4.5573    6.0104 C.3       1 <0>         0.0915
     33 O5        -10.8105   -3.4322    6.5181 O.3       1 <0>        -0.5850
     34 H1         -3.9135    0.9220    9.2667 H         1 <0>         0.0706
     35 H2         -4.0305   -0.6273    8.3653 H         1 <0>         0.0781
     36 H3         -5.3677    0.5685    8.2733 H         1 <0>         0.0787
     37 H4         -2.4826    2.4497    8.3202 H         1 <0>         0.1531
     38 H5         -1.4121    3.4966    6.3378 H         1 <0>         0.1617
     39 H6         -1.9557    2.7164    4.1075 H         1 <0>         0.1845
     40 H7         -4.5675   -1.7036    1.7389 H         1 <0>         0.1547
     41 H8         -8.0472    3.5247   -0.1078 H         1 <0>         0.1165
     42 H9         -7.4448    3.5488    1.5842 H         1 <0>         0.1047
     43 H10        -7.7462   -0.5835    4.2760 H         1 <0>         0.0630
     44 H11        -6.9811   -0.9355    2.6895 H         1 <0>         0.0936
     45 H12        -9.1264   -2.1883    2.9822 H         1 <0>         0.0904
     46 H13        -7.7210   -3.2980    2.8408 H         1 <0>         0.0488
     47 H14        -7.5927   -4.0052    6.4463 H         1 <0>         0.0852
     48 H15        -6.8275   -4.3573    4.8598 H         1 <0>         0.0426
     49 H16        -5.4466   -2.7517    6.1529 H         1 <0>         0.0905
     50 H17        -6.8520   -1.6419    6.2946 H         1 <0>         0.0690
     51 H18       -10.3183   -3.8969    3.9646 H         1 <0>         0.0834
     52 H19        -9.0079   -5.0988    4.2194 H         1 <0>         0.0513
     53 H20       -10.7718   -5.4157    5.9147 H         1 <0>         0.0425
     54 H21        -9.2740   -4.8125    6.7018 H         1 <0>         0.0402
     55 H22       -11.3026   -3.4917    7.5001 H         1 <0>         0.4008
@<TRIPOS>BOND
     1    1    2 1
     2    1   34 1
     3    1   35 1
     4    1   36 1
     5    2    7 1
     6    2    3 2
     7    3    4 1
     8    3   37 1
     9    4    5 2
    10    4   38 1
    11    5    6 1
    12    5   39 1
    13    6   11 am
    14    6    7 1
    15    7    8 2
    16    8    9 1
    17    9   10 2
    18    9   25 1
    19   10   11 1
    20   10   13 1
    21   11   12 2
    22   13   14 2
    23   13   40 1
    24   14   20 1
    25   14   15 1
    26   15   16 2
    27   15   17 am
    28   17   18 1
    29   17   21 1
    30   18   19 2
    31   18   20 1
    32   21   22 1
    33   21   41 1
    34   21   42 1
    35   22   23 2
    36   22   24 1
    37   25   30 1
    38   25   26 1
    39   26   27 1
    40   26   43 1
    41   26   44 1
    42   27   28 1
    43   27   45 1
    44   27   46 1
    45   28   29 1
    46   28   31 1
    47   29   30 1
    48   29   47 1
    49   29   48 1
    50   30   49 1
    51   30   50 1
    52   31   32 1
    53   31   51 1
    54   31   52 1
    55   32   33 1
    56   32   53 1
    57   32   54 1
    58   33   55 1
@<TRIPOS>MOLECULE
ZINC35361940
   77    81     0     0     0
SMALL
USER_CHARGES

@<TRIPOS>ATOM
      1 C1          0.3493    0.9005    0.5648 C.3       1 <0>        -0.1516
      2 C2          0.2888   -0.6064    0.3068 C.3       1 <0>        -0.0053
      3 C3         -1.1780   -0.9611    0.3368 C.3       1 <0>        -0.1055
      4 C4         -1.4056   -2.4485    0.6009 C.3       1 <0>        -0.0535
      5 C5         -0.7863   -2.7696    1.9485 C.2       1 <0>         0.1620
      6 N1         -1.4026   -3.5027    2.8235 N.2       1 <0>        -0.3421
      7 O1         -0.7921   -3.7805    4.0705 O.3       1 <0>        -0.2069
      8 C6         -1.5827   -4.5985    4.9353 C.3       1 <0>         0.0681
      9 C7         -0.8401   -4.8291    6.2261 C.2       1 <0>         0.5359
     10 O2          0.2581   -4.3410    6.3895 O.2       1 <0>        -0.5137
     11 N2         -1.3963   -5.5778    7.1991 N.am      1 <0>        -0.5896
     12 C8         -2.7152   -6.2329    7.1312 C.3       1 <0>         0.0983
     13 C9         -2.6259   -7.4092    8.1352 C.3       1 <0>        -0.1325
     14 C10        -1.7718   -6.7856    9.2705 C.3       1 <0>        -0.1057
     15 C11        -0.7854   -5.8817    8.5014 C.3       1 <0>         0.0677
     16 H1          0.1606   -6.4029    8.3545 H         1 <0>         0.0678
     17 C12        -0.5570   -4.6061    9.2705 C.2       1 <0>         0.4958
     18 O3         -1.0114   -3.5539    8.8548 O.co2     1 <0>        -0.6782
     19 O4          0.0822   -4.6262   10.3086 O.co2     1 <0>        -0.7018
     20 C13         0.5504   -2.2062    2.2110 C.2       1 <0>        -0.1594
     21 C14         1.0459   -1.2594    1.4345 C.2       1 <0>        -0.0700
     22 C15         2.4946   -0.8400    1.6155 C.3       1 <0>        -0.0920
     23 C16         3.1898   -1.1871    0.2923 C.3       1 <0>        -0.1095
     24 C17         2.4888   -0.4915   -0.8760 C.3       1 <0>        -0.0694
     25 H2          2.5421    0.5855   -0.7029 H         1 <0>         0.0737
     26 C18         1.0190   -0.9039   -0.9953 C.3       1 <0>        -0.0468
     27 H3          0.9787   -1.9884   -1.1839 H         1 <0>         0.0798
     28 C19         0.4074   -0.1753   -2.1900 C.3       1 <0>         0.1146
     29 H4          0.4623    0.9028   -2.0610 H         1 <0>         0.0576
     30 C20         1.1507   -0.5630   -3.4708 C.3       1 <0>        -0.1262
     31 C21         2.6273   -0.1840   -3.4089 C.3       1 <0>        -0.0250
     32 C22         3.2700   -0.7690   -2.1414 C.3       1 <0>        -0.0807
     33 H5          4.2745   -0.3561   -2.0275 H         1 <0>         0.0786
     34 C23         3.3824   -2.2723   -2.4556 C.3       1 <0>        -0.1138
     35 C24         3.8147   -2.2919   -3.9410 C.3       1 <0>        -0.1481
     36 C25         3.3404   -0.9596   -4.5509 C.3       1 <0>         0.0973
     37 C26         4.5229   -0.1694   -5.0510 C.2       1 <0>         0.3337
     38 O5          5.6006   -0.2948   -4.5208 O.2       1 <0>        -0.4153
     39 C27         4.3600    0.7770   -6.2124 C.3       1 <0>         0.0250
     40 O6          5.6128    1.4031   -6.4960 O.3       1 <0>        -0.5561
     41 O7          2.4308   -1.2069   -5.6244 O.3       1 <0>        -0.5384
     42 C28         2.8485    1.3250   -3.5271 C.3       1 <0>        -0.1526
     43 O8         -0.9589   -0.5597   -2.3836 O.3       1 <0>        -0.5587
     44 H6          1.3897    1.2255    0.5773 H         1 <0>         0.0601
     45 H7         -0.1861    1.4263   -0.2258 H         1 <0>         0.0584
     46 H8         -0.1125    1.1233    1.5266 H         1 <0>         0.0582
     47 H9         -1.6188   -0.4138    1.1918 H         1 <0>         0.0550
     48 H10        -1.7060   -0.6402   -0.5373 H         1 <0>         0.1080
     49 H11        -2.4737   -2.6630    0.6231 H         1 <0>         0.0847
     50 H12        -0.9245   -3.0410   -0.1775 H         1 <0>         0.0888
     51 H13        -2.5283   -4.0983    5.1444 H         1 <0>         0.0815
     52 H14        -1.7773   -5.5560    4.4520 H         1 <0>         0.0767
     53 H15        -3.4999   -5.5378    7.4301 H         1 <0>         0.0667
     54 H16        -2.9017   -6.6068    6.1245 H         1 <0>         0.0679
     55 H17        -3.6148   -7.6885    8.4987 H         1 <0>         0.0785
     56 H18        -2.1189   -8.2652    7.6900 H         1 <0>         0.0714
     57 H19        -2.3954   -6.1971    9.9434 H         1 <0>         0.0730
     58 H20        -1.2347   -7.5596    9.8187 H         1 <0>         0.0761
     59 H21         1.1310   -2.5718    3.0516 H         1 <0>         0.1303
     60 H22         2.5804    0.2190    1.8243 H         1 <0>         0.0796
     61 H23         2.9458   -1.4160    2.4260 H         1 <0>         0.0762
     62 H24         4.2296   -0.8628    0.3362 H         1 <0>         0.0692
     63 H25         3.1550   -2.2670    0.1438 H         1 <0>         0.0683
     64 H26         1.0548   -1.6405   -3.6150 H         1 <0>         0.0801
     65 H27         0.6792   -0.0509   -4.3122 H         1 <0>         0.0705
     66 H28         4.1410   -2.7416   -1.8297 H         1 <0>         0.0749
     67 H29         2.4210   -2.7683   -2.3303 H         1 <0>         0.0762
     68 H30         4.8999   -2.3696   -4.0118 H         1 <0>         0.0815
     69 H31         3.3442   -3.1286   -4.4562 H         1 <0>         0.0811
     70 H32         4.0243    0.2224   -7.0886 H         1 <0>         0.0805
     71 H33         3.6222    1.5385   -5.9598 H         1 <0>         0.0862
     72 H34         5.5825    2.0270   -7.2342 H         1 <0>         0.3852
     73 H35         2.8203   -1.6886   -6.3669 H         1 <0>         0.3782
     74 H36         2.3364    1.8323   -2.7095 H         1 <0>         0.0722
     75 H37         3.9157    1.5408   -3.4770 H         1 <0>         0.0596
     76 H38         2.4508    1.6770   -4.4790 H         1 <0>         0.0643
     77 H39        -1.3884   -0.1222   -3.1314 H         1 <0>         0.3736
@<TRIPOS>BOND
     1    1    2 1
     2    1   44 1
     3    1   45 1
     4    1   46 1
     5    2   21 1
     6    2   26 1
     7    2    3 1
     8    3    4 1
     9    3   47 1
    10    3   48 1
    11    4    5 1
    12    4   49 1
    13    4   50 1
    14    5    6 2
    15    5   20 1
    16    6    7 1
    17    7    8 1
    18    8    9 1
    19    8   51 1
    20    8   52 1
    21    9   10 2
    22    9   11 am
    23   11   15 1
    24   11   12 1
    25   12   13 1
    26   12   53 1
    27   12   54 1
    28   13   14 1
    29   13   55 1
    30   13   56 1
    31   14   15 1
    32   14   57 1
    33   14   58 1
    34   15   16 1
    35   15   17 1
    36   17   18 2
    37   17   19 1
    38   20   21 2
    39   20   59 1
    40   21   22 1
    41   22   23 1
    42   22   60 1
    43   22   61 1
    44   23   24 1
    45   23   62 1
    46   23   63 1
    47   24   25 1
    48   24   32 1
    49   24   26 1
    50   26   27 1
    51   26   28 1
    52   28   29 1
    53   28   30 1
    54   28   43 1
    55   30   31 1
    56   30   64 1
    57   30   65 1
    58   31   36 1
    59   31   32 1
    60   31   42 1
    61   32   33 1
    62   32   34 1
    63   34   35 1
    64   34   66 1
    65   34   67 1
    66   35   36 1
    67   35   68 1
    68   35   69 1
    69   36   37 1
    70   36   41 1
    71   37   38 2
    72   37   39 1
    73   39   40 1
    74   39   70 1
    75   39   71 1
    76   40   72 1
    77   41   73 1
    78   42   74 1
    79   42   75 1
    80   42   76 1
    81   43   77 1
@<TRIPOS>MOLECULE
ZINC59461650
   47    50     0     0     0
SMALL
USER_CHARGES

@<TRIPOS>ATOM
      1 C1          0.1071    1.4611    0.1569 C.ar      1 <0>        -0.1195
      2 C2          1.3022    2.1396   -0.0749 C.ar      1 <0>        -0.1108
      3 C3          2.4755    1.4641   -0.2132 C.ar      1 <0>        -0.1210
      4 C4          2.4856    0.0610   -0.1215 C.ar      1 <0>         0.0400
      5 C5          1.2697   -0.6292    0.1143 C.ar      1 <0>        -0.0793
      6 C6          0.0785    0.1035    0.2516 C.ar      1 <0>        -0.1094
      7 C7          1.2747   -2.0321    0.2064 C.ar      1 <0>        -0.0505
      8 C8          2.4408   -2.7163    0.0692 C.ar      1 <0>        -0.1461
      9 C9          3.6469   -2.0431   -0.1639 C.ar      1 <0>         0.2255
     10 C10         3.6774   -0.6678   -0.2588 C.ar      1 <0>        -0.6677
     11 S1          5.2003    0.1682   -0.5528 S.o2      1 <0>         2.6771
     12 O1          5.7688    0.4809    0.7491 O.2       1 <0>        -1.0411
     13 O2          6.0439   -0.7442   -1.3091 O.2       1 <0>        -1.0371
     14 O3          4.8836    1.3692   -1.3100 O.3       1 <0>        -1.0379
     15 N1          4.8283   -2.7708   -0.3006 N.pl3     1 <0>        -0.4328
     16 N2          4.7926   -4.0601   -0.3237 N.2       1 <0>        -0.0637
     17 C11         5.9104   -4.7486   -0.4529 C.2       1 <0>        -0.1329
     18 C12         6.0632   -6.2181   -0.5052 C.2       1 <0>         0.2487
     19 N3          7.3371   -6.4722   -0.6400 N.2       1 <0>        -0.2541
     20 N4          8.0859   -5.2969   -0.6860 N.am      1 <0>        -0.3989
     21 C13         7.2786   -4.2224   -0.5833 C.2       1 <0>         0.5004
     22 O4          7.6142   -3.0514   -0.5940 O.2       1 <0>        -0.3633
     23 C14         9.4260   -5.2429   -0.8196 C.2       1 <0>         0.5698
     24 S2         10.2217   -3.7276   -0.8612 S.2       1 <0>        -0.5070
     25 N5         10.1396   -6.3818   -0.9206 N.pl3     1 <0>        -0.7795
     26 C15         4.9729   -7.2176   -0.4197 C.ar      1 <0>         0.0202
     27 C16         3.6496   -6.7999   -0.2808 C.ar      1 <0>        -0.0761
     28 C17         2.6385   -7.7356   -0.2016 C.ar      1 <0>        -0.0549
     29 C18         2.9354   -9.0855   -0.2592 C.ar      1 <0>        -0.0334
     30 C19         4.2462   -9.5060   -0.3969 C.ar      1 <0>        -0.0589
     31 C20         5.2653   -8.5797   -0.4834 C.ar      1 <0>        -0.0763
     32 N6          1.8461  -10.0842   -0.1727 N.pl3     1 <0>         0.0318
     33 O5          0.6998   -9.7195   -0.0520 O.2       1 <0>        -0.1532
     34 O6          2.1029  -11.2645   -0.2228 O.3       1 <0>        -0.1568
     35 H1         -0.8096    2.0213    0.2675 H         1 <0>         0.1218
     36 H2          1.2971    3.2172   -0.1461 H         1 <0>         0.1268
     37 H3          3.3941    2.0029   -0.3929 H         1 <0>         0.1747
     38 H4         -0.8554   -0.4081    0.4318 H         1 <0>         0.1259
     39 H5          0.3529   -2.5654    0.3862 H         1 <0>         0.1382
     40 H6          2.4377   -3.7939    0.1414 H         1 <0>         0.1383
     41 H7          5.6770   -2.3076   -0.3783 H         1 <0>         0.4350
     42 H8          9.6888   -7.2403   -0.8971 H         1 <0>         0.4057
     43 H9         11.1040   -6.3429   -1.0169 H         1 <0>         0.4330
     44 H10         3.4167   -5.7463   -0.2350 H         1 <0>         0.1667
     45 H11         1.6133   -7.4133   -0.0941 H         1 <0>         0.1630
     46 H12         4.4718  -10.5612   -0.4410 H         1 <0>         0.1608
     47 H13         6.2877   -8.9090   -0.5954 H         1 <0>         0.1589
@<TRIPOS>BOND
     1    1    6 ar
     2    1    2 ar
     3    1   35 1
     4    2    3 ar
     5    2   36 1
     6    3    4 ar
     7    3   37 1
     8    4   10 ar
     9    4    5 ar
    10    5    6 ar
    11    5    7 ar
    12    6   38 1
    13    7    8 ar
    14    7   39 1
    15    8    9 ar
    16    8   40 1
    17    9   10 ar
    18    9   15 1
    19   10   11 1
    20   11   12 2
    21   11   13 2
    22   11   14 1
    23   15   16 1
    24   15   41 1
    25   16   17 2
    26   17   21 1
    27   17   18 1
    28   18   19 2
    29   18   26 1
    30   19   20 1
    31   20   21 am
    32   20   23 1
    33   21   22 2
    34   23   24 2
    35   23   25 1
    36   25   42 1
    37   25   43 1
    38   26   31 ar
    39   26   27 ar
    40   27   28 ar
    41   27   44 1
    42   28   29 ar
    43   28   45 1
    44   29   30 ar
    45   29   32 1
    46   30   31 ar
    47   30   46 1
    48   31   47 1
    49   32   33 2
    50   32   34 1
@<TRIPOS>MOLECULE
ZINC12658286
   71    75     0     0     0
SMALL
USER_CHARGES
(2R,4S)-4-hydroxy-1-[2-[[(8S,9R,10R,13S,14S,17S)-17-hydroxy-10,13-dimethyl-1,2,6,7,8,9,11,12,14,15,16,17-dodecahydrocyclopenta[a]phenanthren-3-ylidene]amino]oxyacetyl]pyrrolidine-2-carboxylic acid
@<TRIPOS>ATOM
      1 C1         -6.7212   10.3608    9.9272 C.3       1 <0>        -0.1312
      2 C2         -5.2534   10.0842   10.2592 C.3       1 <0>        -0.0443
      3 C3         -4.3252   10.8342    9.3329 C.3       1 <0>        -0.1029
      4 C4         -3.9478    9.9700    8.1229 C.3       1 <0>        -0.1127
      5 C5         -5.0313    8.9446    7.8133 C.3       1 <0>        -0.0665
      6 H1         -5.9919    9.4429    7.6862 H         1 <0>         0.0805
      7 C6         -5.1223    7.9200    8.9457 C.3       1 <0>        -0.0682
      8 H2         -4.2892    7.2060    8.7922 H         1 <0>         0.0663
      9 C7         -4.9092    8.5804   10.2737 C.3       1 <0>        -0.0754
     10 H3         -3.8400    8.4744   10.5474 H         1 <0>         0.0670
     11 C8         -5.7276    8.0568   11.4577 C.3       1 <0>        -0.1150
     12 C9         -5.7196    9.2275   12.4744 C.3       1 <0>        -0.1569
     13 C10        -5.0312   10.4193   11.7569 C.3       1 <0>         0.0986
     14 H4         -3.9690   10.4502   11.9800 H         1 <0>         0.0610
     15 O1         -5.6708   11.6514   12.0850 O.3       1 <0>        -0.5572
     16 C11        -6.4081    7.1145    8.8520 C.3       1 <0>        -0.1051
     17 C12        -6.6913    6.7422    7.3950 C.3       1 <0>        -0.0851
     18 C13        -5.4225    6.8580    6.5841 C.2       1 <0>        -0.0547
     19 C14        -4.9385    5.7983    5.9542 C.2       1 <0>        -0.1182
     20 C15        -3.7101    5.8810    5.1572 C.2       1 <0>         0.1712
     21 N1         -3.3005    4.8445    4.4940 N.2       1 <0>        -0.3461
     22 O2         -2.1150    4.9202    3.7233 O.3       1 <0>        -0.2062
     23 C16        -1.7834    3.7063    3.0463 C.3       1 <0>         0.0692
     24 C17        -0.5115    3.9001    2.2615 C.2       1 <0>         0.5341
     25 O3          0.0552    4.9722    2.2803 O.2       1 <0>        -0.5124
     26 N2         -0.0037    2.8820    1.5390 N.am      1 <0>        -0.5864
     27 C18        -0.5875    1.5330    1.4269 C.3       1 <0>         0.0688
     28 C19        -0.0501    0.9786    0.0839 C.3       1 <0>         0.0883
     29 H5         -0.0376   -0.1113    0.0882 H         1 <0>         0.0794
     30 C20         1.3918    1.5512    0.0653 C.3       1 <0>        -0.0997
     31 C21         1.2235    2.9332    0.7310 C.3       1 <0>         0.0996
     32 H6          1.1347    3.7047   -0.0338 H         1 <0>         0.0783
     33 C22         2.4081    3.2234    1.6162 C.2       1 <0>         0.4652
     34 O4          2.3249    3.0583    2.8102 O.co2     1 <0>        -0.6257
     35 O5         -0.8126    1.4751   -1.0179 O.3       1 <0>        -0.5529
     36 C23        -2.9217    7.1638    5.1066 C.3       1 <0>        -0.1174
     37 C24        -3.2256    8.0067    6.3464 C.3       1 <0>        -0.1023
     38 C25        -4.7291    8.1978    6.5069 C.3       1 <0>        -0.0248
     39 C26        -5.2922    8.9971    5.3297 C.3       1 <0>        -0.1378
     40 H7         -6.9038   10.1396    8.8757 H         1 <0>         0.0570
     41 H8         -7.3589    9.7306   10.5471 H         1 <0>         0.0530
     42 H9         -6.9466   11.4092   10.1224 H         1 <0>         0.0623
     43 H10        -3.4154   11.1194    9.8738 H         1 <0>         0.0594
     44 H11        -4.8139   11.7524    8.9849 H         1 <0>         0.0629
     45 H12        -3.0066    9.4538    8.3338 H         1 <0>         0.0644
     46 H13        -3.7969   10.6185    7.2552 H         1 <0>         0.0649
     47 H14        -6.7432    7.8226   11.1559 H         1 <0>         0.0729
     48 H15        -5.2443    7.1817   11.8893 H         1 <0>         0.0637
     49 H16        -6.7385    9.4904   12.7524 H         1 <0>         0.0728
     50 H17        -5.1495    8.9447   13.3594 H         1 <0>         0.0613
     51 H18        -5.5670   11.9145   13.0097 H         1 <0>         0.3731
     52 H19        -6.3056    6.2006    9.4360 H         1 <0>         0.0648
     53 H20        -7.2419    7.6969    9.2341 H         1 <0>         0.0678
     54 H21        -7.4482    7.4122    6.9913 H         1 <0>         0.0779
     55 H22        -7.0540    5.7147    7.3538 H         1 <0>         0.0727
     56 H23        -5.4637    4.8563    6.0244 H         1 <0>         0.1257
     57 H24        -2.5920    3.4366    2.3669 H         1 <0>         0.0786
     58 H25        -1.6418    2.9098    3.7768 H         1 <0>         0.0825
     59 H26        -1.6758    1.5912    1.4049 H         1 <0>         0.0734
     60 H27        -0.2569    0.9065    2.2554 H         1 <0>         0.0778
     61 H28         2.0643    0.9217    0.6481 H         1 <0>         0.0890
     62 H29         1.7526    1.6544   -0.9581 H         1 <0>         0.0900
     63 H30        -1.7346    1.1833   -1.0214 H         1 <0>         0.3730
     64 H31        -1.8528    6.9236    5.0906 H         1 <0>         0.0902
     65 H32        -3.1654    7.7153    4.2010 H         1 <0>         0.0892
     66 H33        -2.7422    8.9821    6.2420 H         1 <0>         0.0769
     67 H34        -2.8218    7.5085    7.2311 H         1 <0>         0.0683
     68 H35        -6.3620    9.1496    5.4727 H         1 <0>         0.0572
     69 H36        -4.7916    9.9638    5.2743 H         1 <0>         0.0619
     70 H37        -5.1242    8.4474    4.4036 H         1 <0>         0.0590
     71 O6          3.5558    3.6652    1.0782 O.co2     1 <0>        -0.7660
@<TRIPOS>BOND
     1    1    2 1
     2    1   40 1
     3    1   41 1
     4    1   42 1
     5    2    9 1
     6    2   13 1
     7    2    3 1
     8    3    4 1
     9    3   43 1
    10    3   44 1
    11    4    5 1
    12    4   45 1
    13    4   46 1
    14    5    6 1
    15    5   38 1
    16    5    7 1
    17    7    8 1
    18    7    9 1
    19    7   16 1
    20    9   10 1
    21    9   11 1
    22   11   12 1
    23   11   47 1
    24   11   48 1
    25   12   13 1
    26   12   49 1
    27   12   50 1
    28   13   14 1
    29   13   15 1
    30   15   51 1
    31   16   17 1
    32   16   52 1
    33   16   53 1
    34   17   18 1
    35   17   54 1
    36   17   55 1
    37   18   38 1
    38   18   19 2
    39   19   20 1
    40   19   56 1
    41   20   21 2
    42   20   36 1
    43   21   22 1
    44   22   23 1
    45   23   24 1
    46   23   57 1
    47   23   58 1
    48   24   25 2
    49   24   26 am
    50   26   31 1
    51   26   27 1
    52   27   28 1
    53   27   59 1
    54   27   60 1
    55   28   29 1
    56   28   30 1
    57   28   35 1
    58   30   31 1
    59   30   61 1
    60   30   62 1
    61   31   32 1
    62   31   33 1
    63   33   34 2
    64   33   71 1
    65   35   63 1
    66   36   37 1
    67   36   64 1
    68   36   65 1
    69   37   38 1
    70   37   66 1
    71   37   67 1
    72   38   39 1
    73   39   68 1
    74   39   69 1
    75   39   70 1
@<TRIPOS>MOLECULE
ZINC35185365
   43    46     0     0     0
SMALL
USER_CHARGES

@<TRIPOS>ATOM
      1 C1         -0.0173    1.4248    0.0099 C.3       1 <0>         0.0192
      2 O1          0.0021   -0.0041    0.0020 O.3       1 <0>        -0.3014
      3 C2         -1.2003   -0.6375    0.0101 C.ar      1 <0>         0.1767
      4 C3         -2.3748    0.1012    0.0195 C.ar      1 <0>        -0.2081
      5 C4         -3.5956   -0.5449    0.0272 C.ar      1 <0>        -0.0175
      6 C5         -3.6478   -1.9268    0.0256 C.ar      1 <0>        -0.0817
      7 C6         -2.4790   -2.6650    0.0167 C.ar      1 <0>         0.0034
      8 C7         -1.2554   -2.0235    0.0032 C.ar      1 <0>        -0.1007
      9 C8          0.0182   -2.8288   -0.0128 C.3       1 <0>         0.1982
     10 H1          0.7718   -2.3106   -0.6058 H         1 <0>         0.1127
     11 C9          0.5211   -3.0114    1.3997 C.2       1 <0>         0.0341
     12 C10         0.9907   -4.1900    1.8684 C.2       1 <0>        -0.1479
     13 C11         1.3733   -3.9798    3.2467 C.ar      1 <0>        -0.0980
     14 C12         1.9132   -4.8225    4.2234 C.ar      1 <0>        -0.0593
     15 C13         2.1557   -4.2694    5.4563 C.ar      1 <0>        -0.1571
     16 C14         1.8828   -2.9398    5.7335 C.ar      1 <0>        -0.1031
     17 C15         1.3492   -2.0830    4.7866 C.ar      1 <0>        -0.1376
     18 C16         1.0928   -2.6166    3.5253 C.ar      1 <0>         0.0974
     19 N1          0.5806   -2.0647    2.3858 N.pl3     1 <0>        -0.5762
     20 H2          0.3013   -1.1407    2.2899 H         1 <0>         0.4086
     21 C17         1.0676   -5.4447    1.0354 C.3       1 <0>        -0.0618
     22 C18         0.9176   -5.0455   -0.4390 C.3       1 <0>         0.0222
     23 H3          1.8177   -4.5263   -0.7682 H         1 <0>         0.0778
     24 N2         -0.2427   -4.1554   -0.5945 N.3       1 <0>        -0.6363
     25 C19         0.7163   -6.2822   -1.2764 C.2       1 <0>         0.5059
     26 O2         -0.3672   -6.5001   -1.7911 O.co2     1 <0>        -0.6781
     27 O3          1.6370   -7.0647   -1.4390 O.co2     1 <0>        -0.6977
     28 N3         -4.9573   -2.6166    0.0339 N.pl3     1 <0>         0.0400
     29 O4         -5.9800   -1.9720    0.0420 O.2       1 <0>        -0.1725
     30 O5         -5.0041   -3.8247    0.0325 O.3       1 <0>        -0.1489
     31 H4          1.0053    1.8021    0.0021 H         1 <0>         0.1085
     32 H5         -0.5445    1.7859   -0.8732 H         1 <0>         0.0642
     33 H6         -0.5275    1.7763    0.9067 H         1 <0>         0.0608
     34 H7         -2.3345    1.1804    0.0211 H         1 <0>         0.1520
     35 H8         -4.5101    0.0296    0.0349 H         1 <0>         0.1554
     36 H9         -2.5224   -3.7442    0.0158 H         1 <0>         0.1671
     37 H10         2.1290   -5.8605    4.0175 H         1 <0>         0.1299
     38 H11         2.5723   -4.8909    6.2352 H         1 <0>         0.1153
     39 H12         2.0933   -2.5591    6.7220 H         1 <0>         0.1164
     40 H13         1.1414   -1.0481    5.0148 H         1 <0>         0.1215
     41 H14         2.0311   -5.9306    1.1893 H         1 <0>         0.0810
     42 H15         0.2627   -6.1237    1.3169 H         1 <0>         0.0708
     43 H16        -1.0701   -4.5700   -0.1927 H         1 <0>         0.3448
@<TRIPOS>BOND
     1    1    2 1
     2    1   31 1
     3    1   32 1
     4    1   33 1
     5    2    3 1
     6    3    8 ar
     7    3    4 ar
     8    4    5 ar
     9    4   34 1
    10    5    6 ar
    11    5   35 1
    12    6    7 ar
    13    6   28 1
    14    7    8 ar
    15    7   36 1
    16    8    9 1
    17    9   10 1
    18    9   24 1
    19    9   11 1
    20   11   19 1
    21   11   12 2
    22   12   13 1
    23   12   21 1
    24   13   18 ar
    25   13   14 ar
    26   14   15 ar
    27   14   37 1
    28   15   16 ar
    29   15   38 1
    30   16   17 ar
    31   16   39 1
    32   17   18 ar
    33   17   40 1
    34   18   19 1
    35   19   20 1
    36   21   22 1
    37   21   41 1
    38   21   42 1
    39   22   23 1
    40   22   24 1
    41   22   25 1
    42   24   43 1
    43   25   26 2
    44   25   27 1
    45   28   29 2
    46   28   30 1
@<TRIPOS>MOLECULE
ZINC40124517
   44    47     0     0     0
SMALL
USER_CHARGES

@<TRIPOS>ATOM
      1 C1          0.0335    1.2313    0.1320 C.3       1 <0>         0.0256
      2 O1          0.0948   -0.1959    0.0959 O.3       1 <0>        -0.3115
      3 C2          0.5965   -0.7639   -1.0333 C.ar      1 <0>         0.0992
      4 C3          1.1211    0.0336   -2.0376 C.ar      1 <0>        -0.1877
      5 C4          1.6311   -0.5454   -3.1847 C.ar      1 <0>        -0.0422
      6 C5          1.6189   -1.9199   -3.3330 C.ar      1 <0>        -0.1101
      7 C6          1.0965   -2.7213   -2.3350 C.ar      1 <0>        -0.1065
      8 C7          0.5894   -2.1477   -1.1801 C.ar      1 <0>         0.0620
      9 O2          0.0807   -2.9350   -0.1948 O.3       1 <0>        -0.4874
     10 C8          2.2013    0.3235   -4.2759 C.3       1 <0>         0.2611
     11 H1          1.8902    1.3582   -4.1317 H         1 <0>         0.0731
     12 C9          3.7093    0.2302   -4.2798 C.2       1 <0>        -0.5044
     13 C10         4.0671   -0.2613   -5.4888 C.2       1 <0>         0.2643
     14 C11         2.8516   -0.5004   -6.2949 C.2       1 <0>         0.5127
     15 O3          2.8414   -0.9404   -7.4274 O.2       1 <0>        -0.5371
     16 N1          1.7569   -0.1587   -5.5889 N.am      1 <0>        -0.7237
     17 O4          5.3361   -0.4961   -5.8953 O.3       1 <0>        -0.6515
     18 C12         4.6112    0.6014   -3.1849 C.2       1 <0>         0.5069
     19 O5          5.2583   -0.2558   -2.6124 O.2       1 <0>        -0.4684
     20 C13         4.7344    2.0146   -2.7771 C.ar      1 <0>        -0.1311
     21 C14         3.9269    2.9889   -3.3716 C.ar      1 <0>        -0.0614
     22 C15         4.0448    4.3063   -2.9896 C.ar      1 <0>        -0.1300
     23 C16         4.9646    4.6736   -2.0134 C.ar      1 <0>         0.0620
     24 C17         5.7706    3.7073   -1.4152 C.ar      1 <0>         0.0327
     25 C18         5.6545    2.3821   -1.7914 C.ar      1 <0>        -0.0657
     26 O6          6.6703    4.0498   -0.4526 O.3       1 <0>        -0.3071
     27 C19         7.0179    5.4357   -0.3609 C.3       1 <0>         0.0201
     28 C20         5.7244    6.2598   -0.4148 C.3       1 <0>         0.0208
     29 O7          5.0664    5.9811   -1.6553 O.3       1 <0>        -0.3076
     30 H2          1.0440    1.6392    0.1074 H         1 <0>         0.0556
     31 H3         -0.5254    1.5929   -0.7311 H         1 <0>         0.0545
     32 H4         -0.4650    1.5505    1.0473 H         1 <0>         0.0958
     33 H5          1.1312    1.1076   -1.9245 H         1 <0>         0.1306
     34 H6          2.0179   -2.3685   -4.2308 H         1 <0>         0.1260
     35 H7          1.0878   -3.7948   -2.4536 H         1 <0>         0.1321
     36 H8         -0.8643   -3.1186   -0.2866 H         1 <0>         0.3784
     37 H9          0.8379   -0.2205   -5.8933 H         1 <0>         0.4070
     38 H10         3.2113    2.7082   -4.1302 H         1 <0>         0.1448
     39 H11         3.4206    5.0577   -3.4503 H         1 <0>         0.1358
     40 H12         6.2772    1.6319   -1.3268 H         1 <0>         0.1421
     41 H13         7.5345    5.6236    0.5804 H         1 <0>         0.1191
     42 H14         7.6630    5.7090   -1.1959 H         1 <0>         0.0759
     43 H15         5.0760    5.9811    0.4158 H         1 <0>         0.0760
     44 H16         5.9625    7.3218   -0.3556 H         1 <0>         0.1191
@<TRIPOS>BOND
     1    1    2 1
     2    1   30 1
     3    1   31 1
     4    1   32 1
     5    2    3 1
     6    3    8 ar
     7    3    4 ar
     8    4    5 ar
     9    4   33 1
    10    5    6 ar
    11    5   10 1
    12    6    7 ar
    13    6   34 1
    14    7    8 ar
    15    7   35 1
    16    8    9 1
    17    9   36 1
    18   10   11 1
    19   10   16 1
    20   10   12 1
    21   12   13 2
    22   12   18 1
    23   13   14 1
    24   13   17 1
    25   14   15 2
    26   14   16 am
    27   16   37 1
    28   18   19 2
    29   18   20 1
    30   20   25 ar
    31   20   21 ar
    32   21   22 ar
    33   21   38 1
    34   22   23 ar
    35   22   39 1
    36   23   29 1
    37   23   24 ar
    38   24   25 ar
    39   24   26 1
    40   25   40 1
    41   26   27 1
    42   27   28 1
    43   27   41 1
    44   27   42 1
    45   28   29 1
    46   28   43 1
    47   28   44 1
@<TRIPOS>MOLECULE
ZINC50197821
   43    43     0     0     0
SMALL
USER_CHARGES

@<TRIPOS>ATOM
      1 C1         -0.0187    1.5258    0.0104 C.3       1 <0>        -0.1527
      2 C2          0.0021   -0.0041    0.0020 C.3       1 <0>        -0.1209
      3 C3          0.7182   -0.4975   -1.2568 C.3       1 <0>        -0.0258
      4 C4          0.7386   -2.0043   -1.2651 C.2       1 <0>         0.0761
      5 N1         -0.1267   -2.8607   -1.7717 N.2       1 <0>        -0.2552
      6 N2          0.0394   -4.1086   -1.6937 N.2       1 <0>        -0.2768
      7 C5          1.0983   -4.6372   -1.0951 C.2       1 <0>         0.2825
      8 S1          1.9488   -3.1423   -0.5967 S.3       1 <0>        -0.0106
      9 N3          1.4495   -5.9678   -0.9123 N.am      1 <0>        -0.5880
     10 C6          0.6510   -6.9463   -1.3830 C.2       1 <0>         0.5065
     11 O1         -0.3751   -6.6641   -1.9667 O.2       1 <0>        -0.4350
     12 C7          1.0287   -8.3775   -1.1864 C.2       1 <0>         0.5244
     13 O2          2.0548   -8.6596   -0.6028 O.2       1 <0>        -0.5107
     14 N4          0.2303   -9.3559   -1.6570 N.am      1 <0>        -0.6821
     15 C8          0.6008  -10.7601   -1.4642 C.3       1 <0>         0.0977
     16 C9         -0.4516  -11.6464   -2.0789 C.2       1 <0>         0.5071
     17 O3         -1.4162  -11.1536   -2.6245 O.2       1 <0>        -0.5283
     18 N5         -0.3208  -12.9866   -2.0225 N.am      1 <0>        -0.7223
     19 C10        -1.3439  -13.8482   -2.6202 C.3       1 <0>         0.1212
     20 C11        -0.9569  -15.3147   -2.4187 C.3       1 <0>        -0.1087
     21 C12        -2.0832  -16.2144   -2.9312 C.3       1 <0>        -0.1472
     22 C13         0.3278  -15.6142   -3.1939 C.3       1 <0>        -0.1513
     23 H1          1.0039    1.9031    0.0027 H         1 <0>         0.0581
     24 H2         -0.5459    1.8868   -0.8726 H         1 <0>         0.0601
     25 H3         -0.5289    1.8773    0.9072 H         1 <0>         0.0613
     26 H4          0.5293   -0.3651    0.8851 H         1 <0>         0.0672
     27 H5         -1.0205   -0.3814    0.0098 H         1 <0>         0.0728
     28 H6          0.1910   -0.1364   -2.1398 H         1 <0>         0.1096
     29 H7          1.7408   -0.1202   -1.2645 H         1 <0>         0.0979
     30 H8          2.2695   -6.1934   -0.4459 H         1 <0>         0.4414
     31 H9         -0.5898   -9.1304   -2.1235 H         1 <0>         0.4277
     32 H10         1.5615  -10.9513   -1.9423 H         1 <0>         0.1106
     33 H11         0.6771  -10.9726   -0.3978 H         1 <0>         0.1107
     34 H12         0.4507  -13.3807   -1.5862 H         1 <0>         0.4047
     35 H13        -2.3046  -13.6570   -2.1420 H         1 <0>         0.0721
     36 H14        -1.4202  -13.6357   -3.6865 H         1 <0>         0.0725
     37 H15        -0.7939  -15.5050   -1.3579 H         1 <0>         0.0783
     38 H16        -2.2462  -16.0241   -3.9920 H         1 <0>         0.0595
     39 H17        -1.8075  -17.2592   -2.7877 H         1 <0>         0.0626
     40 H18        -2.9985  -16.0010   -2.3789 H         1 <0>         0.0592
     41 H19         0.1648  -15.4239   -4.2547 H         1 <0>         0.0588
     42 H20         1.1303  -14.9732   -2.8288 H         1 <0>         0.0542
     43 H21         0.6035  -16.6589   -3.0503 H         1 <0>         0.0605
@<TRIPOS>BOND
     1    1    2 1
     2    1   23 1
     3    1   24 1
     4    1   25 1
     5    2    3 1
     6    2   26 1
     7    2   27 1
     8    3    4 1
     9    3   28 1
    10    3   29 1
    11    4    8 1
    12    4    5 2
    13    5    6 1
    14    6    7 2
    15    7    8 1
    16    7    9 1
    17    9   10 am
    18    9   30 1
    19   10   11 2
    20   10   12 1
    21   12   13 2
    22   12   14 am
    23   14   15 1
    24   14   31 1
    25   15   16 1
    26   15   32 1
    27   15   33 1
    28   16   17 2
    29   16   18 am
    30   18   19 1
    31   18   34 1
    32   19   20 1
    33   19   35 1
    34   19   36 1
    35   20   21 1
    36   20   22 1
    37   20   37 1
    38   21   38 1
    39   21   39 1
    40   21   40 1
    41   22   41 1
    42   22   42 1
    43   22   43 1
@<TRIPOS>MOLECULE
ZINC64414562
   38    40     0     0     0
SMALL
USER_CHARGES

@<TRIPOS>ATOM
      1 C1         -0.0187    1.5258    0.0104 C.3       1 <0>        -0.1508
      2 C2          0.0021   -0.0041    0.0020 C.3       1 <0>         0.0615
      3 O1          0.6932   -0.4774    1.1597 O.3       1 <0>        -0.3514
      4 C3          0.8012   -1.8150    1.3047 C.2       1 <0>         0.5244
      5 O2          0.3208   -2.5584    0.4693 O.2       1 <0>        -0.5242
      6 C4          1.4716   -2.3517    2.4253 C.2       1 <0>        -0.2344
      7 H1          1.1018   -5.0493    1.2389 H         1 <0>         0.4204
      8 C5          2.1036   -1.5272    3.5208 C.3       1 <0>        -0.0508
      9 C6          2.3166   -2.5227    4.6874 C.3       1 <0>        -0.1038
     10 C7          2.4930   -3.8406    3.9211 C.3       1 <0>        -0.0456
     11 C8          1.6293   -3.6784    2.6653 C.2       1 <0>         0.2411
     12 N1          1.1855   -4.8791    2.1902 N.pl3     1 <0>        -0.7224
     13 C9          0.8381   -5.9076    3.1946 C.3       1 <0>         0.4373
     14 H2          1.3161   -6.8585    2.9592 H         1 <0>         0.1383
     15 S1          1.5428   -5.1905    4.7357 S.3       1 <0>        -0.2666
     16 N2         -0.6145   -6.0669    3.2991 N.am      1 <0>        -0.7126
     17 C10        -1.1311   -7.1450    3.9214 C.2       1 <0>         0.6091
     18 O3         -0.3919   -7.9851    4.3959 O.2       1 <0>        -0.5452
     19 C11        -2.5978   -7.3059    4.0270 C.ar      1 <0>        -0.1346
     20 C12        -3.1369   -8.4244    4.6726 C.ar      1 <0>        -0.0404
     21 C13        -4.5154   -8.5301    4.7462 C.ar      1 <0>        -0.2374
     22 C14        -5.2814   -7.5171    4.1735 C.ar      1 <0>         0.3744
     23 O4         -6.6343   -7.5796    4.2227 O.3       1 <0>        -0.6778
     24 N3         -4.6852   -6.4908    3.5801 N.ar      1 <0>        -0.3439
     25 N4         -3.4075   -6.3869    3.5143 N.ar      1 <0>        -0.1632
     26 H3          1.0039    1.9031    0.0027 H         1 <0>         0.0644
     27 H4         -0.5459    1.8868   -0.8726 H         1 <0>         0.0770
     28 H5         -0.5289    1.8773    0.9072 H         1 <0>         0.0667
     29 H6         -1.0205   -0.3814    0.0098 H         1 <0>         0.0674
     30 H7          0.5123   -0.3556   -0.8948 H         1 <0>         0.0638
     31 H8          3.0591   -1.1219    3.1880 H         1 <0>         0.0784
     32 H9          1.4340   -0.7228    3.8253 H         1 <0>         0.0878
     33 H10         3.2137   -2.2757    5.2552 H         1 <0>         0.0891
     34 H11         1.4418   -2.5594    5.3366 H         1 <0>         0.0935
     35 H12         3.5359   -4.0945    3.7313 H         1 <0>         0.1357
     36 H13        -1.2044   -5.3965    2.9205 H         1 <0>         0.4185
     37 H14        -2.4971   -9.1823    5.1000 H         1 <0>         0.1295
     38 H15        -4.9832   -9.3731    5.2330 H         1 <0>         0.1268
@<TRIPOS>BOND
     1    1    2 1
     2    1   26 1
     3    1   27 1
     4    1   28 1
     5    2    3 1
     6    2   29 1
     7    2   30 1
     8    3    4 1
     9    4    5 2
    10    4    6 1
    11    6    8 1
    12    6   11 2
    13    7   12 1
    14    8    9 1
    15    8   31 1
    16    8   32 1
    17    9   33 1
    18    9   34 1
    19    9   10 1
    20   10   15 1
    21   10   35 1
    22   10   11 1
    23   11   12 1
    24   12   13 1
    25   13   14 1
    26   13   15 1
    27   13   16 1
    28   16   17 am
    29   16   36 1
    30   17   18 2
    31   17   19 1
    32   19   20 ar
    33   19   25 ar
    34   20   21 ar
    35   20   37 1
    36   21   22 ar
    37   21   38 1
    38   22   23 1
    39   22   24 ar
    40   24   25 ar
@<TRIPOS>MOLECULE
ZINC04870612
   37    38     0     0     0
SMALL
USER_CHARGES
2-[3-acetyl-4-hydroxy-2-(4-nitrophenyl)-5-oxo-2H-pyrrol-1-yl]propanoic acid
@<TRIPOS>ATOM
      1 C1         -0.1596    2.6941   -3.2550 C.3       1 <0>        -0.1468
      2 C2         -0.4075    1.3533   -2.5612 C.3       1 <0>         0.1176
      3 H1          0.4937    0.7428   -2.6176 H         1 <0>         0.0944
      4 C3         -1.5434    0.6365   -3.2446 C.2       1 <0>         0.4598
      5 O1         -2.5386    0.3499   -2.6222 O.co2     1 <0>        -0.6152
      6 N1         -0.7521    1.5866   -1.1565 N.am      1 <0>        -0.5664
      7 C4         -0.0127    1.0858    0.0080 C.3       1 <0>         0.2134
      8 H2          0.0021   -0.0041    0.0020 H         1 <0>         0.1193
      9 C5         -0.7508    1.5884    1.2267 C.2       1 <0>        -0.2790
     10 C6         -1.8090    2.3057    0.7745 C.2       1 <0>         0.1600
     11 C7         -1.8020    2.2987   -0.7051 C.2       1 <0>         0.5216
     12 O2         -2.6219    2.8539   -1.4089 O.2       1 <0>        -0.4851
     13 O3         -2.7237    2.9279    1.5511 O.3       1 <0>        -0.4041
     14 C8         -0.4045    1.3560    2.5789 C.2       1 <0>         0.4151
     15 O4         -1.0871    1.8203    3.4686 O.2       1 <0>        -0.4549
     16 C9          0.8118    0.5319    2.9142 C.3       1 <0>        -0.2045
     17 C10         1.3955    1.6225   -0.0026 C.ar      1 <0>        -0.0341
     18 C11         1.6358    2.9248   -0.3989 C.ar      1 <0>        -0.0939
     19 C12         2.9270    3.4186   -0.4040 C.ar      1 <0>        -0.0502
     20 C13         3.9789    2.6068   -0.0227 C.ar      1 <0>        -0.0443
     21 C14         3.7391    1.3029    0.3686 C.ar      1 <0>        -0.0531
     22 C15         2.4474    0.8107    0.3787 C.ar      1 <0>        -0.1062
     23 N2          5.3621    3.1336   -0.0340 N.pl3     1 <0>         0.0302
     24 O5          6.2890    2.4182    0.3016 O.2       1 <0>        -0.1617
     25 O6          5.5734    4.2825   -0.3788 O.3       1 <0>        -0.1621
     26 H3          0.0967    2.5205   -4.3001 H         1 <0>         0.0806
     27 H4         -1.0608    3.3046   -3.1985 H         1 <0>         0.0656
     28 H5          0.6620    3.2126   -2.7607 H         1 <0>         0.0456
     29 H6         -3.3982    3.3845    0.9710 H         1 <0>         0.4141
     30 H7          1.6988    1.0050    2.4928 H         1 <0>         0.0903
     31 H8          0.9166    0.4627    3.9970 H         1 <0>         0.0841
     32 H9          0.6999   -0.4682    2.4954 H         1 <0>         0.0934
     33 H10         0.8145    3.5576   -0.7010 H         1 <0>         0.1454
     34 H11         3.1144    4.4372   -0.7101 H         1 <0>         0.1549
     35 H12         4.5610    0.6685    0.6662 H         1 <0>         0.1570
     36 H13         2.2601   -0.2081    0.6841 H         1 <0>         0.1549
     37 O7         -1.4495    0.3163   -4.5448 O.co2     1 <0>        -0.7559
@<TRIPOS>BOND
     1    1    2 1
     2    1   26 1
     3    1   27 1
     4    1   28 1
     5    2    3 1
     6    2    4 1
     7    2    6 1
     8    4    5 2
     9    4   37 1
    10    6   11 am
    11    6    7 1
    12    7    8 1
    13    7    9 1
    14    7   17 1
    15    9   10 2
    16    9   14 1
    17   10   11 1
    18   10   13 1
    19   11   12 2
    20   13   29 1
    21   14   15 2
    22   14   16 1
    23   16   30 1
    24   16   31 1
    25   16   32 1
    26   17   22 ar
    27   17   18 ar
    28   18   19 ar
    29   18   33 1
    30   19   20 ar
    31   19   34 1
    32   20   21 ar
    33   20   23 1
    34   21   22 ar
    35   21   35 1
    36   22   36 1
    37   23   24 2
    38   23   25 1
@<TRIPOS>MOLECULE
ZINC33721828
   33    32     0     0     0
SMALL
USER_CHARGES
(2S,3R)-2,3-dihydroxy-N1',N4'-bis(methylsulfonyl)butanedihydrazide
@<TRIPOS>ATOM
      1 C1         -7.8358    1.2608    2.3472 C.3       1 <0>        -0.7021
      2 S1         -7.4034   -0.4927    2.5167 S.o2      1 <0>         2.4623
      3 O1         -8.5117   -1.3069    2.1587 O.2       1 <0>        -1.0007
      4 O2         -6.7093   -0.7099    3.7375 O.2       1 <0>        -1.0469
      5 N1         -6.2767   -0.7693    1.3350 N.2       1 <0>        -0.8409
      6 N2         -5.0730   -0.0524    1.3332 N.am      1 <0>        -0.4931
      7 C2         -3.8968   -0.7104    1.3240 C.2       1 <0>         0.5151
      8 O3         -3.8804   -1.9231    1.3174 O.2       1 <0>        -0.5311
      9 C3         -2.6021    0.0608    1.3221 C.3       1 <0>         0.1069
     10 H1         -2.5446    0.7169    2.2032 H         1 <0>         0.0914
     11 C4         -2.4820    0.8526    0.0185 C.3       1 <0>         0.0934
     12 H2         -2.5395    0.1965   -0.8625 H         1 <0>         0.1027
     13 C5         -1.1873    1.6238    0.0165 C.2       1 <0>         0.4884
     14 O4         -1.2037    2.8365    0.0232 O.2       1 <0>        -0.5048
     15 N3         -0.0111    0.9658    0.0074 N.am      1 <0>        -0.5297
     16 N4          1.1926    1.6828   -0.0003 N.pl3     1 <0>        -0.9066
     17 S2          2.3360    1.3935    1.1621 S.o2      1 <0>         2.6098
     18 O5          3.4391    2.2116    0.7971 O.2       1 <0>        -0.9444
     19 O6          1.6595    1.5974    2.3949 O.2       1 <0>        -0.9379
     20 C6          2.7658   -0.3581    0.9675 C.3       1 <0>        -0.6774
     21 O7         -3.5786    1.7626   -0.0888 O.3       1 <0>        -0.5562
     22 O8         -1.5055   -0.8492    1.4294 O.3       1 <0>        -0.5466
     23 H3         -6.9710    1.8804    2.6268 H         1 <0>         0.0959
     24 H4         -8.6835    1.4949    3.0079 H         1 <0>         0.0850
     25 H5         -8.1151    1.4704    1.3041 H         1 <0>         0.1058
     26 H6         -5.0879    1.0475    1.3393 H         1 <0>         0.3840
     27 H7          0.0039   -0.1341    0.0060 H         1 <0>         0.4417
     28 H8          1.3561    2.3486   -0.6864 H         1 <0>         0.4266
     29 H9          3.5283   -0.6333    1.7110 H         1 <0>         0.1396
     30 H10         3.1622   -0.5281   -0.0444 H         1 <0>         0.1362
     31 H11         1.8675   -0.9749    1.1179 H         1 <0>         0.1336
     32 H12        -3.6629    2.4213   -0.9657 H         1 <0>         0.4233
     33 H13        -0.4738   -0.4679    1.4441 H         1 <0>         0.3768
@<TRIPOS>BOND
     1    1    2 1
     2    1   23 1
     3    1   24 1
     4    1   25 1
     5    2    3 2
     6    2    4 2
     7    2    5 1
     8    5    6 1
     9    6    7 am
    10    6   26 1
    11    7    8 2
    12    7    9 1
    13    9   10 1
    14    9   11 1
    15    9   22 1
    16   11   12 1
    17   11   13 1
    18   11   21 1
    19   13   14 2
    20   13   15 am
    21   15   16 1
    22   15   27 1
    23   16   17 1
    24   16   28 1
    25   17   18 2
    26   17   19 2
    27   17   20 1
    28   20   29 1
    29   20   30 1
    30   20   31 1
    31   21   32 1
    32   22   33 1
@<TRIPOS>MOLECULE
ZINC37739594
   37    37     0     0     0
SMALL
USER_CHARGES

@<TRIPOS>ATOM
      1 C1         -0.0184    1.5028    0.0103 C.3       1 <0>        -0.0982
      2 C2          0.0021   -0.0041    0.0020 C.2       1 <0>         0.1452
      3 C3          0.0080   -0.8179   -1.1355 C.2       1 <0>        -0.8377
      4 C4          0.0279   -2.1072   -0.7249 C.2       1 <0>         0.2166
      5 N1          0.0343   -2.1090    0.6245 N.pl3     1 <0>        -0.3006
      6 N2          0.0231   -0.7768    1.0576 N.2       1 <0>        -0.2846
      7 C5          0.0548   -3.2948    1.4847 C.3       1 <0>         0.0418
      8 C6          1.4825   -3.6816    1.7729 C.2       1 <0>         0.4877
      9 O1          2.3980   -3.0275    1.3033 O.co2     1 <0>        -0.6680
     10 O2          1.7221   -4.6487    2.4756 O.co2     1 <0>        -0.6837
     11 C7          0.0401   -3.3230   -1.6152 C.3       1 <0>        -0.1378
     12 S1         -0.0085   -0.2626   -2.8076 S.o2      1 <0>         2.7306
     13 O3         -0.5486   -1.3241   -3.5827 O.2       1 <0>        -0.9668
     14 O4         -0.5776    1.0394   -2.7975 O.2       1 <0>        -0.9652
     15 N3          1.5687   -0.0862   -3.2805 N.pl3     1 <0>        -1.1133
     16 C8          2.4430   -1.2585   -3.3669 C.3       1 <0>         0.1265
     17 C9          3.6984   -0.9007   -4.1650 C.3       1 <0>        -0.6258
     18 S2          4.7810   -2.3522   -4.2720 S.o2      1 <0>         2.4191
     19 O5          5.2386   -2.6691   -2.9645 O.2       1 <0>        -0.9198
     20 O6          4.1181   -3.3523   -5.0334 O.2       1 <0>        -0.9321
     21 C10         6.1866   -1.7335   -5.2376 C.3       1 <0>        -0.6554
     22 H1          1.0042    1.8801    0.0026 H         1 <0>         0.0778
     23 H2         -0.5455    1.8639   -0.8728 H         1 <0>         0.1042
     24 H3         -0.5286    1.8543    0.9071 H         1 <0>         0.0756
     25 H4         -0.4577   -3.0734    2.4209 H         1 <0>         0.0984
     26 H5         -0.4500   -4.1185    0.9800 H         1 <0>         0.0971
     27 H6          1.0706   -3.6020   -1.8350 H         1 <0>         0.0942
     28 H7         -0.4598   -4.1489   -1.1091 H         1 <0>         0.0819
     29 H8         -0.4816   -3.0976   -2.5453 H         1 <0>         0.1192
     30 H9          1.9136    0.7934   -3.5003 H         1 <0>         0.4171
     31 H10         2.7282   -1.5739   -2.3633 H         1 <0>         0.0899
     32 H11         1.9141   -2.0702   -3.8664 H         1 <0>         0.0962
     33 H12         3.4133   -0.5853   -5.1687 H         1 <0>         0.1408
     34 H13         4.2274   -0.0889   -3.6656 H         1 <0>         0.1414
     35 H14         6.6509   -0.9002   -4.7103 H         1 <0>         0.1287
     36 H15         6.9166   -2.5322   -5.3692 H         1 <0>         0.1313
     37 H16         5.8368   -1.3965   -6.2134 H         1 <0>         0.1276
@<TRIPOS>BOND
     1    1    2 1
     2    1   22 1
     3    1   23 1
     4    1   24 1
     5    2    6 2
     6    2    3 1
     7    3    4 2
     8    3   12 1
     9    4    5 1
    10    4   11 1
    11    5    6 1
    12    5    7 1
    13    7    8 1
    14    7   25 1
    15    7   26 1
    16    8    9 2
    17    8   10 1
    18   11   27 1
    19   11   28 1
    20   11   29 1
    21   12   13 2
    22   12   14 2
    23   12   15 1
    24   15   16 1
    25   15   30 1
    26   16   17 1
    27   16   31 1
    28   16   32 1
    29   17   18 1
    30   17   33 1
    31   17   34 1
    32   18   19 2
    33   18   20 2
    34   18   21 1
    35   21   35 1
    36   21   36 1
    37   21   37 1
@<TRIPOS>MOLECULE
ZINC43509503
   42    42     0     0     0
SMALL
USER_CHARGES

@<TRIPOS>ATOM
      1 C1          0.5635    1.1012   -0.1147 C.3       1 <0>        -0.1466
      2 C2          0.2072   -0.3509    0.2097 C.3       1 <0>        -0.0958
      3 C3          0.7134   -0.6995    1.6108 C.3       1 <0>        -0.1555
      4 C4         -1.3118   -0.5270    0.1578 C.3       1 <0>        -0.1165
      5 C5         -1.6595   -2.0076    0.3244 C.3       1 <0>         0.1416
      6 H1         -1.1038   -2.5958   -0.4059 H         1 <0>         0.1013
      7 C6         -3.1378   -2.2040    0.1075 C.2       1 <0>         0.5047
      8 O1         -3.8252   -2.6632    0.9950 O.2       1 <0>        -0.4893
      9 N1         -3.6961   -1.8693   -1.0726 N.am      1 <0>        -0.7061
     10 C7         -5.1332   -2.0601   -1.2835 C.3       1 <0>         0.0978
     11 C8         -5.4979   -1.6467   -2.7189 C.3       1 <0>        -0.1157
     12 C9         -5.4291   -0.0954   -2.8085 C.3       1 <0>        -0.0585
     13 S1         -6.1905    0.3694   -1.1964 S.3       1 <0>        -0.3450
     14 C10        -5.9206   -1.1959   -0.2693 C.3       1 <0>        -0.0298
     15 C11        -5.4802   -3.5123   -1.0789 C.2       1 <0>         0.5031
     16 O2         -4.6060   -4.3141   -0.7972 O.co2     1 <0>        -0.6497
     17 O3         -6.6351   -3.8853   -1.1951 O.co2     1 <0>        -0.6949
     18 N2         -1.3021   -2.4440    1.6765 N.pl3     1 <0>        -1.0899
     19 S2         -0.7473   -3.9836    1.9301 S.o2      1 <0>         2.5984
     20 O4         -0.4534   -4.0388    3.3193 O.2       1 <0>        -0.9648
     21 O5         -1.7435   -4.8255    1.3663 O.2       1 <0>        -0.9124
     22 C12         0.7835   -4.0927    0.9629 C.3       1 <0>        -0.6838
     23 H2          1.6457    1.2267   -0.0778 H         1 <0>         0.0535
     24 H3          0.2029    1.3496   -1.1129 H         1 <0>         0.0555
     25 H4          0.0960    1.7619    0.6153 H         1 <0>         0.0558
     26 H5          0.6747   -1.0115   -0.5204 H         1 <0>         0.0719
     27 H6          0.1373   -0.1472    2.3531 H         1 <0>         0.0603
     28 H7          0.5974   -1.7694    1.7833 H         1 <0>         0.0523
     29 H8          1.7663   -0.4301    1.6941 H         1 <0>         0.0527
     30 H9         -1.7718    0.0470    0.9622 H         1 <0>         0.0800
     31 H10        -1.6862   -0.1717   -0.8022 H         1 <0>         0.0821
     32 H11        -3.1463   -1.5020   -1.7824 H         1 <0>         0.3835
     33 H12        -4.7895   -2.0878   -3.4203 H         1 <0>         0.0793
     34 H13        -6.5071   -1.9847   -2.9542 H         1 <0>         0.0976
     35 H14        -4.3973    0.2504   -2.8714 H         1 <0>         0.0828
     36 H15        -6.0194    0.2777   -3.6454 H         1 <0>         0.0986
     37 H16        -6.8717   -1.6652   -0.0180 H         1 <0>         0.1023
     38 H17        -5.3279   -1.0165    0.6278 H         1 <0>         0.0980
     39 H18        -1.3904   -1.8312    2.4232 H         1 <0>         0.4200
     40 H19         1.5270   -3.4144    1.3816 H         1 <0>         0.1274
     41 H20         1.1630   -5.1139    0.9973 H         1 <0>         0.1280
     42 H21         0.5803   -3.8152   -0.0714 H         1 <0>         0.1260
@<TRIPOS>BOND
     1    1    2 1
     2    1   23 1
     3    1   24 1
     4    1   25 1
     5    2    3 1
     6    2    4 1
     7    2   26 1
     8    3   27 1
     9    3   28 1
    10    3   29 1
    11    4    5 1
    12    4   30 1
    13    4   31 1
    14    5    6 1
    15    5    7 1
    16    5   18 1
    17    7    8 2
    18    7    9 am
    19    9   10 1
    20    9   32 1
    21   10   14 1
    22   10   11 1
    23   10   15 1
    24   11   12 1
    25   11   33 1
    26   11   34 1
    27   12   13 1
    28   12   35 1
    29   12   36 1
    30   13   14 1
    31   14   37 1
    32   14   38 1
    33   15   16 2
    34   15   17 1
    35   18   19 1
    36   18   39 1
    37   19   20 2
    38   19   21 2
    39   19   22 1
    40   22   40 1
    41   22   41 1
    42   22   42 1
@<TRIPOS>MOLECULE
ZINC63142624
   40    40     0     0     0
SMALL
USER_CHARGES

@<TRIPOS>ATOM
      1 C1          0.3347    1.6844   -0.6131 C.3       1 <0>        -0.1685
      2 C2          0.1382    0.2049   -0.2765 C.3       1 <0>        -0.0905
      3 H1         -0.9197   -0.0472   -0.3506 H         1 <0>         0.0672
      4 C3          0.9368   -0.6524   -1.2604 C.3       1 <0>        -0.1083
      5 C4          2.4217   -0.2986   -1.1564 C.3       1 <0>        -0.1412
      6 C5          2.9114   -0.5669    0.2681 C.3       1 <0>        -0.1346
      7 C6          2.1128    0.2904    1.2519 C.3       1 <0>         0.1143
      8 C7          0.6279   -0.0635    1.1480 C.3       1 <0>        -0.0941
      9 C8          2.5951    0.0260    2.6550 C.2       1 <0>         0.4930
     10 O1          2.9190    0.9561    3.3737 O.co2     1 <0>        -0.6593
     11 O2          2.6614   -1.1179    3.0714 O.co2     1 <0>        -0.6971
     12 N1          2.3009    1.7070    0.9296 N.pl3     1 <0>        -1.0853
     13 S1          3.8295    2.3271    0.7840 S.o2      1 <0>         2.6157
     14 O3          3.6490    3.7365    0.7678 O.2       1 <0>        -0.9732
     15 O4          4.5739    1.7040    1.8217 O.2       1 <0>        -0.8987
     16 C9          4.4131    1.7533   -0.8348 C.3       1 <0>        -0.6667
     17 C10         5.8137    2.3097   -1.0986 C.3       1 <0>        -0.6029
     18 S2          6.3973    1.7359   -2.7175 S.o2      1 <0>         2.4277
     19 O5          6.5521    0.3243   -2.6650 O.2       1 <0>        -0.9310
     20 O6          5.5671    2.3032   -3.7215 O.2       1 <0>        -0.9364
     21 C11         8.0429    2.4893   -2.8404 C.3       1 <0>        -0.6593
     22 H2          1.3951    1.8844   -0.7664 H         1 <0>         0.0730
     23 H3         -0.2159    1.9265   -1.5222 H         1 <0>         0.0490
     24 H4         -0.0353    2.2965    0.2095 H         1 <0>         0.0586
     25 H5          0.7968   -1.7064   -1.0206 H         1 <0>         0.0646
     26 H6          0.5880   -0.4612   -2.2752 H         1 <0>         0.0580
     27 H7          2.9907   -0.9093   -1.8573 H         1 <0>         0.0656
     28 H8          2.5617    0.7555   -1.3962 H         1 <0>         0.0640
     29 H9          2.7714   -1.6210    0.5078 H         1 <0>         0.0951
     30 H10         3.9693   -0.3149    0.3421 H         1 <0>         0.0588
     31 H11         0.0589    0.5473    1.8489 H         1 <0>         0.0634
     32 H12         0.4879   -1.1175    1.3878 H         1 <0>         0.0797
     33 H13         1.5301    2.2818    0.8015 H         1 <0>         0.4132
     34 H14         4.4473    0.6639   -0.8435 H         1 <0>         0.1577
     35 H15         3.7317    2.1016   -1.6111 H         1 <0>         0.1430
     36 H16         5.7795    3.3991   -1.0899 H         1 <0>         0.1448
     37 H17         6.4951    1.9614   -0.3224 H         1 <0>         0.1475
     38 H18         8.6664    2.1364   -2.0189 H         1 <0>         0.1318
     39 H19         8.5003    2.2103   -3.7896 H         1 <0>         0.1313
     40 H20         7.9507    3.5741   -2.7865 H         1 <0>         0.1303
@<TRIPOS>BOND
     1    1    2 1
     2    1   22 1
     3    1   23 1
     4    1   24 1
     5    2    3 1
     6    2    8 1
     7    2    4 1
     8    4    5 1
     9    4   25 1
    10    4   26 1
    11    5    6 1
    12    5   27 1
    13    5   28 1
    14    6    7 1
    15    6   29 1
    16    6   30 1
    17    7    8 1
    18    7    9 1
    19    7   12 1
    20    8   31 1
    21    8   32 1
    22    9   10 2
    23    9   11 1
    24   12   13 1
    25   12   33 1
    26   13   14 2
    27   13   15 2
    28   13   16 1
    29   16   17 1
    30   16   34 1
    31   16   35 1
    32   17   18 1
    33   17   36 1
    34   17   37 1
    35   18   19 2
    36   18   20 2
    37   18   21 1
    38   21   38 1
    39   21   39 1
    40   21   40 1
@<TRIPOS>MOLECULE
ZINC13755631
   26    27     0     0     0
SMALL
USER_CHARGES
(5S)-3-(carboxymethyloxy)-4,5,6,7-tetrahydroisoxazolo[4,5-d]pyridine-5-carboxylic acid
@<TRIPOS>ATOM
      1 C1         -4.1346   -2.0856    0.0354 C.3       1 <0>        -0.0431
      2 C2         -2.7092   -2.5558    0.0142 C.2       1 <0>        -0.1891
      3 C3         -2.3426   -3.8609    0.0019 C.2       1 <0>        -0.0857
      4 O1         -1.0124   -3.8802   -0.0093 O.3       1 <0>         0.1307
      5 N1         -0.5521   -2.7554   -0.0132 N.2       1 <0>        -0.3954
      6 C4         -1.4981   -1.8463    0.0064 C.2       1 <0>         0.2429
      7 O2         -1.3386   -0.4987    0.0122 O.3       1 <0>        -0.2472
      8 C5          0.0021   -0.0041    0.0020 C.3       1 <0>         0.0200
      9 C6         -0.0184    1.5028    0.0103 C.2       1 <0>         0.4701
     10 O3         -1.0728    2.0926    0.0185 O.co2     1 <0>        -0.6086
     11 C7         -3.3350   -4.9930   -0.0012 C.3       1 <0>         0.1060
     12 C8         -5.0156   -3.2827    0.4269 C.3       1 <0>        -0.0154
     13 H1         -4.8660   -3.5130    1.4817 H         1 <0>         0.1426
     14 C9         -6.4635   -2.9390    0.1890 C.2       1 <0>         0.4611
     15 O4         -7.0227   -3.3348   -0.8062 O.co2     1 <0>        -0.6175
     16 H2         -4.2494   -1.2870    0.7682 H         1 <0>         0.1313
     17 H3         -4.4194   -1.7249   -0.9530 H         1 <0>         0.1067
     18 H4          0.5123   -0.3556   -0.8948 H         1 <0>         0.0729
     19 H5          0.5293   -0.3651    0.8851 H         1 <0>         0.0732
     20 H6         -3.0254   -5.7515   -0.7201 H         1 <0>         0.1513
     21 H7         -3.3950   -5.4322    0.9946 H         1 <0>         0.1516
     22 O5          1.1348    2.1897    0.0030 O.co2     1 <0>        -0.7459
     23 N2         -4.6595   -4.4573   -0.3970 N.4       1 <0>        -0.4951
     24 H8         -5.3703   -5.1870   -0.2686 H         1 <0>         0.4428
     25 H9         -4.6290   -4.1792   -1.3850 H         1 <0>         0.4363
     26 O6         -7.1318   -2.1931    1.0827 O.co2     1 <0>        -0.6963
@<TRIPOS>BOND
     1    1   12 1
     2    1    2 1
     3    1   16 1
     4    1   17 1
     5    2    6 1
     6    2    3 2
     7    3    4 1
     8    3   11 1
     9    4    5 1
    10    5    6 2
    11    6    7 1
    12    7    8 1
    13    8    9 1
    14    8   18 1
    15    8   19 1
    16    9   10 2
    17    9   22 1
    18   11   20 1
    19   11   21 1
    20   11   23 1
    21   12   13 1
    22   12   14 1
    23   12   23 1
    24   14   15 2
    25   14   26 1
    26   23   24 1
    27   23   25 1
@<TRIPOS>MOLECULE
ZINC37921726
   29    28     0     0     0
SMALL
USER_CHARGES

@<TRIPOS>ATOM
      1 C1         -0.0187    1.5258    0.0104 C.3       1 <0>        -0.1641
      2 C2          0.0021   -0.0041    0.0020 C.3       1 <0>         0.1291
      3 N1         -1.3723   -0.5112    0.0124 N.am      1 <0>        -0.7422
      4 C3         -1.6006   -1.8394    0.0075 C.2       1 <0>         0.6901
      5 O1         -0.6662   -2.6166   -0.0056 O.2       1 <0>        -0.5284
      6 N2         -2.8650   -2.3059    0.0170 N.am      1 <0>        -0.6890
      7 C4         -3.0933   -3.6342    0.0121 C.2       1 <0>         0.5435
      8 O2         -2.1613   -4.4094   -0.0010 O.2       1 <0>        -0.4474
      9 C5         -4.5071   -4.1558    0.0228 C.3       1 <0>        -0.4840
     10 H1         -5.1267   -3.5395   -0.6286 H         1 <0>         0.1391
     11 C6         -5.0587   -4.1050    1.4490 C.3       1 <0>        -0.1374
     12 S1         -4.5238   -5.8697   -0.5712 S.o       1 <0>         1.3257
     13 O3         -3.6810   -6.6645    0.2518 O.2       1 <0>        -0.7998
     14 C7         -6.2473   -6.3924   -0.3550 C.3       1 <0>        -0.5169
     15 C8         -6.4015   -7.8185   -0.8169 C.2       1 <0>         0.5153
     16 O4         -5.4380   -8.4261   -1.2516 O.co2     1 <0>        -0.6830
     17 O5         -7.4898   -8.3648   -0.7558 O.co2     1 <0>        -0.6871
     18 H2          1.0039    1.9031    0.0027 H         1 <0>         0.0757
     19 H3         -0.5459    1.8868   -0.8726 H         1 <0>         0.0623
     20 H4         -0.5289    1.8773    0.9072 H         1 <0>         0.0613
     21 H5          0.5123   -0.3556   -0.8948 H         1 <0>         0.0694
     22 H6          0.5293   -0.3651    0.8851 H         1 <0>         0.0678
     23 H7         -2.1181    0.1091    0.0229 H         1 <0>         0.3971
     24 H8         -3.6107   -1.6857    0.0275 H         1 <0>         0.4080
     25 H9         -4.4391   -4.7213    2.1004 H         1 <0>         0.0637
     26 H10        -5.0487   -3.0751    1.8059 H         1 <0>         0.0575
     27 H11        -6.0813   -4.4823    1.4567 H         1 <0>         0.0763
     28 H12        -6.5196   -6.3200    0.6979 H         1 <0>         0.0842
     29 H13        -6.8993   -5.7472   -0.9440 H         1 <0>         0.1132
@<TRIPOS>BOND
     1    1    2 1
     2    1   18 1
     3    1   19 1
     4    1   20 1
     5    2    3 1
     6    2   21 1
     7    2   22 1
     8    3    4 am
     9    3   23 1
    10    4    5 2
    11    4    6 am
    12    6    7 am
    13    6   24 1
    14    7    8 2
    15    7    9 1
    16    9   10 1
    17    9   11 1
    18    9   12 1
    19   11   25 1
    20   11   26 1
    21   11   27 1
    22   12   13 2
    23   12   14 1
    24   14   15 1
    25   14   28 1
    26   14   29 1
    27   15   16 2
    28   15   17 1
@<TRIPOS>MOLECULE
ZINC40546653
   26    25     0     0     0
SMALL
USER_CHARGES

@<TRIPOS>ATOM
      1 C1         -0.0187    1.5258    0.0104 C.3       1 <0>        -0.1815
      2 C2          0.0021   -0.0041    0.0020 C.3       1 <0>         0.1122
      3 H1         -1.0205   -0.3814    0.0098 H         1 <0>         0.0505
      4 C3          0.7182   -0.4975   -1.2568 C.3       1 <0>         0.0960
      5 H2          1.7408   -0.1202   -1.2645 H         1 <0>         0.0893
      6 C4          0.7387   -2.0043   -1.2651 C.2       1 <0>         0.4927
      7 O1          0.0606   -2.6188   -2.0708 O.co2     1 <0>        -0.6948
      8 O2          1.4333   -2.6090   -0.4661 O.co2     1 <0>        -0.6777
      9 N1          0.0097   -0.0122   -2.4437 N.am      1 <0>        -0.7017
     10 C5          0.6691    0.1319   -3.6102 C.2       1 <0>         0.7185
     11 O3          1.8520   -0.1409   -3.6776 O.2       1 <0>        -0.5845
     12 N2          0.0172    0.5784   -4.7021 N.am      1 <0>        -0.7516
     13 C6          0.7340    0.7350   -5.9701 C.3       1 <0>         0.1023
     14 C7         -0.2295    1.2523   -7.0401 C.3       1 <0>         0.4484
     15 F1         -0.7484    2.4890   -6.6419 F         1 <0>        -0.1809
     16 F2          0.4550    1.4018   -8.2510 F         1 <0>        -0.1758
     17 F3         -1.2763    0.3390   -7.2059 F         1 <0>        -0.1773
     18 O4          0.6932   -0.4774    1.1597 O.3       1 <0>        -0.5330
     19 H3          1.0039    1.9031    0.0027 H         1 <0>         0.0619
     20 H4         -0.5459    1.8868   -0.8726 H         1 <0>         0.0611
     21 H5         -0.5289    1.8773    0.9072 H         1 <0>         0.0531
     22 H6         -0.9341    0.2054   -2.3899 H         1 <0>         0.3881
     23 H7         -0.9265    0.7960   -4.6484 H         1 <0>         0.3988
     24 H8          1.5496    1.4466   -5.8410 H         1 <0>         0.1101
     25 H9          1.1383   -0.2285   -6.2804 H         1 <0>         0.1121
     26 H10         0.2938   -0.2021    1.9962 H         1 <0>         0.3639
@<TRIPOS>BOND
     1    1    2 1
     2    1   19 1
     3    1   20 1
     4    1   21 1
     5    2    3 1
     6    2    4 1
     7    2   18 1
     8    4    5 1
     9    4    6 1
    10    4    9 1
    11    6    7 2
    12    6    8 1
    13    9   10 am
    14    9   22 1
    15   10   11 2
    16   10   12 am
    17   12   13 1
    18   12   23 1
    19   13   14 1
    20   13   24 1
    21   13   25 1
    22   14   15 1
    23   14   16 1
    24   14   17 1
    25   18   26 1
@<TRIPOS>MOLECULE
ZINC43508517
   27    28     0     0     0
SMALL
USER_CHARGES

@<TRIPOS>ATOM
      1 C1         -0.0163    1.3503    0.0095 C.2       1 <0>        -0.2116
      2 C2          1.3086    1.7974   -0.0008 C.2       1 <0>        -0.1205
      3 C3          2.1137    0.6782   -0.0145 C.2       1 <0>        -0.0297
      4 N1          1.2903   -0.4250   -0.0125 N.pl3     1 <0>        -0.5414
      5 H1          1.5833   -1.3496   -0.0203 H         1 <0>         0.4125
      6 C4          0.0021   -0.0041    0.0020 C.2       1 <0>         0.0041
      7 C5          3.5803    0.6653   -0.0293 C.2       1 <0>         0.5927
      8 O1          4.1980    1.7138   -0.0302 O.2       1 <0>        -0.5027
      9 N2          4.2438   -0.5078   -0.0418 N.am      1 <0>        -0.7057
     10 C6          5.7087   -0.5206   -0.0566 C.3       1 <0>         0.0979
     11 C7          6.2059   -1.9744   -0.1175 C.3       1 <0>        -0.1163
     12 C8          5.9574   -2.6299    1.2710 C.3       1 <0>        -0.0600
     13 S1          6.4352   -1.2446    2.3880 S.3       1 <0>        -0.3407
     14 C9          6.2415    0.1661    1.2240 C.3       1 <0>        -0.0324
     15 C10         6.2032    0.2271   -1.2680 C.2       1 <0>         0.5077
     16 O2          5.4059    0.7127   -2.0521 O.co2     1 <0>        -0.6614
     17 O3          7.4007    0.3464   -1.4639 O.co2     1 <0>        -0.6890
     18 H2         -0.8977    1.9742    0.0252 H         1 <0>         0.1391
     19 H3          1.6390    2.8256    0.0013 H         1 <0>         0.1451
     20 H4         -0.8678   -0.6441    0.0069 H         1 <0>         0.1657
     21 H5          3.7515   -1.3435   -0.0411 H         1 <0>         0.3791
     22 H6          5.6568   -2.5194   -0.8854 H         1 <0>         0.0791
     23 H7          7.2714   -1.9898   -0.3465 H         1 <0>         0.1006
     24 H8          4.9081   -2.8957    1.3993 H         1 <0>         0.0812
     25 H9          6.6023   -3.4960    1.4191 H         1 <0>         0.1010
     26 H10         7.2020    0.6454    1.0345 H         1 <0>         0.1057
     27 H11         5.5178    0.8860    1.6062 H         1 <0>         0.1000
@<TRIPOS>BOND
     1    1    6 2
     2    1    2 1
     3    1   18 1
     4    2    3 2
     5    2   19 1
     6    3    4 1
     7    3    7 1
     8    4    5 1
     9    4    6 1
    10    6   20 1
    11    7    8 2
    12    7    9 am
    13    9   10 1
    14    9   21 1
    15   10   14 1
    16   10   11 1
    17   10   15 1
    18   11   12 1
    19   11   22 1
    20   11   23 1
    21   12   13 1
    22   12   24 1
    23   12   25 1
    24   13   14 1
    25   14   26 1
    26   14   27 1
    27   15   16 2
    28   15   17 1
@<TRIPOS>MOLECULE
ZINC49364762
   31    30     0     0     0
SMALL
USER_CHARGES

@<TRIPOS>ATOM
      1 C1         -0.0187    1.5258    0.0104 C.3       1 <0>        -0.1577
      2 C2          0.0021   -0.0041    0.0020 C.3       1 <0>         0.1771
      3 H1         -1.0205   -0.3814    0.0098 H         1 <0>         0.1265
      4 C3          0.7309   -0.5033    1.2229 C.2       1 <0>         0.4583
      5 O1          1.7215   -1.1839    1.0989 O.2       1 <0>        -0.4989
      6 O2          0.2797   -0.1918    2.4481 O.3       1 <0>        -0.3489
      7 C4          1.0198   -0.6989    3.5604 C.3       1 <0>         0.0330
      8 N1          0.6878   -0.4765   -1.2033 N.am      1 <0>        -0.7435
      9 C5          0.0062   -0.6081   -2.3585 C.2       1 <0>         0.7060
     10 O3         -1.1778   -0.3348   -2.4004 O.2       1 <0>        -0.5974
     11 N2          0.6370   -1.0428   -3.4674 N.am      1 <0>        -0.7077
     12 C6         -0.1039   -1.1859   -4.7231 C.3       1 <0>         0.1153
     13 C7         -1.2450   -2.1867   -4.5308 C.3       1 <0>        -0.1399
     14 C8         -0.6793    0.1712   -5.1332 C.3       1 <0>        -0.1393
     15 C9          0.8249   -1.6839   -5.8004 C.2       1 <0>         0.5027
     16 O4          1.9970   -1.8994   -5.5431 O.co2     1 <0>        -0.6930
     17 O5          0.4041   -1.8714   -6.9293 O.co2     1 <0>        -0.6822
     18 H2          1.0039    1.9031    0.0027 H         1 <0>         0.0604
     19 H3         -0.5459    1.8868   -0.8726 H         1 <0>         0.0819
     20 H4         -0.5289    1.8773    0.9072 H         1 <0>         0.0762
     21 H5          1.0335   -1.7881    3.5215 H         1 <0>         0.0609
     22 H6          2.0413   -0.3210    3.5197 H         1 <0>         0.0608
     23 H7          0.5490   -0.3744    4.4884 H         1 <0>         0.1027
     24 H8          1.6324   -0.6946   -1.1699 H         1 <0>         0.4037
     25 H9          1.5816   -1.2609   -3.4340 H         1 <0>         0.4034
     26 H10        -1.9168   -1.8265   -3.7516 H         1 <0>         0.0662
     27 H11        -1.7963   -2.2931   -5.4651 H         1 <0>         0.0624
     28 H12        -0.8350   -3.1535   -4.2387 H         1 <0>         0.0411
     29 H13         0.1337    0.8842   -5.2702 H         1 <0>         0.0412
     30 H14        -1.2306    0.0647   -6.0675 H         1 <0>         0.0622
     31 H15        -1.3511    0.5314   -4.3540 H         1 <0>         0.0664
@<TRIPOS>BOND
     1    1    2 1
     2    1   18 1
     3    1   19 1
     4    1   20 1
     5    2    3 1
     6    2    4 1
     7    2    8 1
     8    4    5 2
     9    4    6 1
    10    6    7 1
    11    7   21 1
    12    7   22 1
    13    7   23 1
    14    8    9 am
    15    8   24 1
    16    9   10 2
    17    9   11 am
    18   11   12 1
    19   11   25 1
    20   12   13 1
    21   12   14 1
    22   12   15 1
    23   13   26 1
    24   13   27 1
    25   13   28 1
    26   14   29 1
    27   14   30 1
    28   14   31 1
    29   15   16 2
    30   15   17 1
@<TRIPOS>MOLECULE
ZINC24563371
   36    37     0     0     0
SMALL
USER_CHARGES
N-(3-cyano-4,5-dimethyl-2-thienyl)-4-hydroxy-piperidine-1-carboxamide
@<TRIPOS>ATOM
      1 C1          6.1611    1.0838    0.2382 C.3       1 <0>        -0.1039
      2 C2          4.7125    0.6691    0.2157 C.2       1 <0>        -0.0664
      3 C3          4.3518   -0.6250    0.2934 C.2       1 <0>        -0.2075
      4 S1          2.5733   -0.5586    0.2315 S.3       1 <0>         0.2457
      5 C4          2.3526    1.1535    0.0971 C.2       1 <0>         0.1243
      6 C5          3.6525    1.6429    0.1095 C.2       1 <0>        -0.1460
      7 C6          3.9277    3.0454    0.0208 C.1       1 <0>         0.2734
      8 N1          4.1459    4.1581   -0.0496 N.1       1 <0>        -0.4311
      9 N2          1.1643    1.8651    0.0054 N.am      1 <0>        -0.6471
     10 C7         -0.0144    1.2116    0.0087 C.2       1 <0>         0.7070
     11 O1         -0.0356   -0.0040   -0.0021 O.2       1 <0>        -0.5490
     12 N3         -1.1697    1.9057    0.0184 N.am      1 <0>        -0.6181
     13 C8         -2.4599    1.2103    0.1207 C.3       1 <0>         0.1289
     14 C9         -3.2467    1.8108    1.2956 C.3       1 <0>        -0.1294
     15 C10        -3.3625    3.3247    1.1038 C.3       1 <0>         0.1166
     16 C11        -1.9647    3.9475    1.0923 C.3       1 <0>        -0.1679
     17 C12        -1.1631    3.3717   -0.0793 C.3       1 <0>         0.1105
     18 O2         -4.1239    3.8835    2.1762 O.3       1 <0>        -0.5991
     19 C13         5.2389   -1.8377    0.4105 C.3       1 <0>        -0.0676
     20 H1          6.7970    0.1903    0.3236 H         1 <0>         0.0765
     21 H2          6.3399    1.7448    1.0991 H         1 <0>         0.0695
     22 H3          6.4037    1.6190   -0.6917 H         1 <0>         0.0694
     23 H4          1.1847    2.9623   -0.0700 H         1 <0>         0.4385
     24 H5         -3.0232    1.3431   -0.8148 H         1 <0>         0.0770
     25 H6         -2.2858    0.1382    0.2948 H         1 <0>         0.1076
     26 H7         -4.2519    1.3654    1.3294 H         1 <0>         0.0890
     27 H8         -2.7194    1.5977    2.2371 H         1 <0>         0.0770
     28 H9         -3.9147    3.5686    0.1842 H         1 <0>         0.0561
     29 H10        -2.0502    5.0383    0.9790 H         1 <0>         0.0836
     30 H11        -1.4524    3.7162    2.0378 H         1 <0>         0.0791
     31 H12        -0.1265    3.7373   -0.0374 H         1 <0>         0.0759
     32 H13        -1.6216    3.6778   -1.0312 H         1 <0>         0.0839
     33 H14        -4.3141    4.9664    2.2098 H         1 <0>         0.4095
     34 H15         4.6171   -2.7442    0.4516 H         1 <0>         0.0738
     35 H16         5.8411   -1.7642    1.3281 H         1 <0>         0.0800
     36 H17         5.9059   -1.8898   -0.4627 H         1 <0>         0.0802
@<TRIPOS>BOND
     1    1    2 1
     2    1   20 1
     3    1   21 1
     4    1   22 1
     5    2    6 1
     6    2    3 2
     7    3    4 1
     8    3   19 1
     9    4    5 1
    10    5    6 2
    11    5    9 1
    12    6    7 1
    13    7    8 3
    14    9   10 am
    15    9   23 1
    16   10   11 2
    17   10   12 am
    18   12   17 1
    19   12   13 1
    20   13   14 1
    21   13   24 1
    22   13   25 1
    23   14   15 1
    24   14   26 1
    25   14   27 1
    26   15   16 1
    27   15   18 1
    28   15   28 1
    29   16   17 1
    30   16   29 1
    31   16   30 1
    32   17   31 1
    33   17   32 1
    34   18   33 1
    35   19   34 1
    36   19   35 1
    37   19   36 1
@<TRIPOS>MOLECULE
ZINC37692880
   29    30     0     0     0
SMALL
USER_CHARGES

@<TRIPOS>ATOM
      1 C1         -0.0167    1.3800    0.0096 C.ar      1 <0>        -0.0085
      2 C2          1.1642    2.0963    0.0022 C.ar      1 <0>        -0.2162
      3 C3          2.3824    1.4315   -0.0134 C.ar      1 <0>         0.2905
      4 C4          2.4083    0.0274   -0.0212 C.ar      1 <0>        -0.1446
      5 C5          1.2040   -0.6851   -0.0130 C.ar      1 <0>         0.1956
      6 C6          0.0021   -0.0041    0.0020 C.ar      1 <0>        -0.2112
      7 F1          1.2166   -2.0360   -0.0208 F         1 <0>        -0.1248
      8 C7          3.6587   -0.6704   -0.0377 C.1       1 <0>         0.2516
      9 N1          4.6506   -1.2240   -0.0509 N.1       1 <0>        -0.4074
     10 N2          3.5714    2.1521   -0.0218 N.pl3     1 <0>        -0.7067
     11 C8          3.5403    3.6167   -0.0142 C.3       1 <0>         0.1488
     12 H1          2.6854    3.9422    0.5785 H         1 <0>         0.1200
     13 C9          3.3523    4.1135   -1.4652 C.3       1 <0>        -0.5943
     14 S1          4.4064    5.6289   -1.4664 S.o2      1 <0>         2.3744
     15 O1          3.6770    6.7100   -0.9021 O.2       1 <0>        -0.9187
     16 O2          5.0144    5.7782   -2.7420 O.2       1 <0>        -0.9235
     17 C10         5.6662    5.0414   -0.2519 C.3       1 <0>        -0.6173
     18 C11         4.8119    4.1259    0.6477 C.3       1 <0>         0.1009
     19 H2          4.5387    4.6814    1.5448 H         1 <0>         0.0959
     20 O3          5.6046    3.0025    1.0371 O.3       1 <0>        -0.5527
     21 H3         -0.9613    1.9034    0.0260 H         1 <0>         0.1432
     22 H4          1.1396    3.1760    0.0082 H         1 <0>         0.1393
     23 H5         -0.9273   -0.5542    0.0083 H         1 <0>         0.1449
     24 H6          4.4215    1.6851   -0.0327 H         1 <0>         0.4183
     25 H7          3.7209    3.3793   -2.1815 H         1 <0>         0.1509
     26 H8          2.3094    4.3615   -1.6624 H         1 <0>         0.1534
     27 H9          6.4547    4.4755   -0.7481 H         1 <0>         0.1518
     28 H10         6.0816    5.8741    0.3156 H         1 <0>         0.1502
     29 H11         6.4369    3.2391    1.4688 H         1 <0>         0.3963
@<TRIPOS>BOND
     1    1    6 ar
     2    1    2 ar
     3    1   21 1
     4    2    3 ar
     5    2   22 1
     6    3    4 ar
     7    3   10 1
     8    4    5 ar
     9    4    8 1
    10    5    6 ar
    11    5    7 1
    12    6   23 1
    13    8    9 3
    14   10   11 1
    15   10   24 1
    16   11   12 1
    17   11   18 1
    18   11   13 1
    19   13   14 1
    20   13   25 1
    21   13   26 1
    22   14   15 2
    23   14   16 2
    24   14   17 1
    25   17   18 1
    26   17   27 1
    27   17   28 1
    28   18   19 1
    29   18   20 1
    30   20   29 1
@<TRIPOS>MOLECULE
ZINC42476741
   37    38     0     0     0
SMALL
USER_CHARGES

@<TRIPOS>ATOM
      1 C1         -0.3499    1.0912   -1.6317 C.3       1 <0>        -0.0766
      2 C2         -0.1470   -0.1929   -0.8695 C.2       1 <0>         0.0147
      3 C3         -0.9753   -0.6805    0.0807 C.2       1 <0>        -0.2263
      4 C4         -0.4225   -1.8881    0.5333 C.2       1 <0>        -0.1701
      5 C5          0.7420   -2.0789   -0.1813 C.2       1 <0>        -0.0045
      6 O1          0.8808   -1.0380   -1.0289 O.3       1 <0>        -0.1300
      7 C6          1.6303   -3.1741   -0.0523 C.2       1 <0>         0.0169
      8 C7          2.9694   -2.9738   -0.1296 C.2       1 <0>        -0.2145
      9 C8          3.4896   -1.6574   -0.1259 C.2       1 <0>         0.5477
     10 O2          2.7482   -0.7103    0.0650 O.2       1 <0>        -0.5234
     11 N1          4.8053   -1.4520   -0.3337 N.am      1 <0>        -0.7090
     12 C9          5.3436   -0.0895   -0.3298 C.3       1 <0>         0.1326
     13 H1          4.8064    0.5144    0.4014 H         1 <0>         0.1120
     14 C10         6.8317   -0.1255    0.0267 C.3       1 <0>        -0.1220
     15 C11         7.2743    1.1991    0.6212 C.3       1 <0>        -0.1208
     16 C12         7.2348    2.3555   -0.3611 C.3       1 <0>        -0.1443
     17 C13         5.7947    2.6828   -0.7604 C.3       1 <0>         0.1030
     18 N2          5.4128    1.8231   -1.8925 N.am      1 <0>        -0.7229
     19 C14         5.1898    0.5222   -1.7064 C.2       1 <0>         0.5078
     20 O3          4.8675   -0.1750   -2.6450 O.2       1 <0>        -0.5374
     21 H2          0.4706    1.2294   -2.3357 H         1 <0>         0.0736
     22 H3         -1.2926    1.0450   -2.1770 H         1 <0>         0.0848
     23 H4         -0.3746    1.9280   -0.9337 H         1 <0>         0.0855
     24 H5         -1.8915   -0.2254    0.4271 H         1 <0>         0.1468
     25 H6         -0.8287   -2.5402    1.2924 H         1 <0>         0.1494
     26 H7          1.2414   -4.1688    0.1078 H         1 <0>         0.1571
     27 H8          3.6390   -3.8188   -0.1941 H         1 <0>         0.1390
     28 H9          5.3958   -2.2064   -0.4858 H         1 <0>         0.4047
     29 H10         7.0081   -0.9208    0.7509 H         1 <0>         0.0859
     30 H11         7.4118   -0.3263   -0.8741 H         1 <0>         0.0733
     31 H12         6.6252    1.4364    1.4641 H         1 <0>         0.0685
     32 H13         8.2940    1.0912    0.9908 H         1 <0>         0.0746
     33 H14         7.6872    3.2333    0.1003 H         1 <0>         0.0815
     34 H15         7.8019    2.0878   -1.2527 H         1 <0>         0.0725
     35 H16         5.1297    2.4946    0.0825 H         1 <0>         0.0777
     36 H17         5.7263    3.7296   -1.0567 H         1 <0>         0.0904
     37 H18         5.3193    2.2064   -2.7786 H         1 <0>         0.4016
@<TRIPOS>BOND
     1    1    2 1
     2    1   21 1
     3    1   22 1
     4    1   23 1
     5    2    6 1
     6    2    3 2
     7    3    4 1
     8    3   24 1
     9    4    5 2
    10    4   25 1
    11    5    6 1
    12    5    7 1
    13    7    8 2
    14    7   26 1
    15    8    9 1
    16    8   27 1
    17    9   10 2
    18    9   11 am
    19   11   12 1
    20   11   28 1
    21   12   13 1
    22   12   19 1
    23   12   14 1
    24   14   15 1
    25   14   29 1
    26   14   30 1
    27   15   16 1
    28   15   31 1
    29   15   32 1
    30   16   17 1
    31   16   33 1
    32   16   34 1
    33   17   18 1
    34   17   35 1
    35   17   36 1
    36   18   19 am
    37   18   37 1
    38   19   20 2
@<TRIPOS>MOLECULE
ZINC48157252
   41    42     0     0     0
SMALL
USER_CHARGES

@<TRIPOS>ATOM
      1 C1         -0.0184    1.5028    0.0103 C.3       1 <0>        -0.1752
      2 C2          0.0021   -0.0041    0.0020 C.2       1 <0>         0.5125
      3 O1          1.0605   -0.5961   -0.0113 O.2       1 <0>        -0.5439
      4 N1         -1.1558   -0.6938    0.0094 N.am      1 <0>        -0.6175
      5 C3         -2.4459    0.0093    0.0193 C.3       1 <0>         0.1109
      6 C4         -3.2826   -0.5121    1.1918 C.3       1 <0>        -0.1436
      7 C5         -3.3975   -2.0350    1.0938 C.3       1 <0>         0.1644
      8 C6         -2.0032   -2.6601    1.1798 C.3       1 <0>        -0.1439
      9 C7         -1.1521   -2.1630    0.0014 C.3       1 <0>         0.1126
     10 N2         -4.2248   -2.5339    2.1952 N.am      1 <0>        -0.7438
     11 C8         -4.8813   -3.7041    2.0684 C.2       1 <0>         0.7031
     12 O2         -4.7870   -4.3458    1.0399 O.2       1 <0>        -0.5883
     13 N3         -5.6423   -4.1631    3.0816 N.am      1 <0>        -0.7450
     14 C9         -6.3560   -5.4351    2.9438 C.3       1 <0>         0.1478
     15 C10        -7.1393   -5.7220    4.2263 C.3       1 <0>        -0.1260
     16 C11        -8.5471   -5.1034    4.2397 C.3       1 <0>        -0.1368
     17 C12        -9.0271   -6.4049    4.9037 C.3       1 <0>        -0.1438
     18 C13        -7.8287   -7.0966    4.2326 C.3       1 <0>        -0.1313
     19 H1          1.0042    1.8801    0.0026 H         1 <0>         0.0929
     20 H2         -0.5455    1.8639   -0.8728 H         1 <0>         0.0890
     21 H3         -0.5286    1.8543    0.9071 H         1 <0>         0.0882
     22 H4         -2.2778    1.0797    0.1379 H         1 <0>         0.0941
     23 H5         -2.9716   -0.1786   -0.9169 H         1 <0>         0.0760
     24 H6         -2.7996   -0.2434    2.1313 H         1 <0>         0.0744
     25 H7         -4.2778   -0.0690    1.1540 H         1 <0>         0.0852
     26 H8         -3.8581   -2.3040    0.1432 H         1 <0>         0.0919
     27 H9         -1.5323   -2.3712    2.1194 H         1 <0>         0.0679
     28 H10        -2.0878   -3.7458    1.1334 H         1 <0>         0.0822
     29 H11        -1.5745   -2.5244   -0.9361 H         1 <0>         0.0721
     30 H12        -0.1300   -2.5264    0.1083 H         1 <0>         0.0963
     31 H13        -4.3000   -2.0220    3.0157 H         1 <0>         0.3954
     32 H14        -5.7176   -3.6512    3.9021 H         1 <0>         0.3957
     33 H15        -7.0461   -5.3751    2.1022 H         1 <0>         0.0678
     34 H16        -5.6387   -6.2370    2.7690 H         1 <0>         0.0670
     35 H17        -6.5629   -5.5185    5.1288 H         1 <0>         0.0954
     36 H18        -8.6331   -4.2277    4.8830 H         1 <0>         0.0668
     37 H19        -8.9625   -4.9418    3.2451 H         1 <0>         0.0831
     38 H20        -8.9679   -6.3875    5.9919 H         1 <0>         0.0808
     39 H21        -9.9930   -6.7518    4.5367 H         1 <0>         0.0697
     40 H22        -8.0476   -7.4798    3.2360 H         1 <0>         0.0852
     41 H23        -7.3347   -7.8299    4.8701 H         1 <0>         0.0708
@<TRIPOS>BOND
     1    1    2 1
     2    1   19 1
     3    1   20 1
     4    1   21 1
     5    2    3 2
     6    2    4 am
     7    4    9 1
     8    4    5 1
     9    5    6 1
    10    5   22 1
    11    5   23 1
    12    6    7 1
    13    6   24 1
    14    6   25 1
    15    7    8 1
    16    7   10 1
    17    7   26 1
    18    8    9 1
    19    8   27 1
    20    8   28 1
    21    9   29 1
    22    9   30 1
    23   10   11 am
    24   10   31 1
    25   11   12 2
    26   11   13 am
    27   13   14 1
    28   13   32 1
    29   14   15 1
    30   14   33 1
    31   14   34 1
    32   15   18 1
    33   15   16 1
    34   15   35 1
    35   16   17 1
    36   16   36 1
    37   16   37 1
    38   17   18 1
    39   17   38 1
    40   17   39 1
    41   18   40 1
    42   18   41 1
@<TRIPOS>MOLECULE
ZINC53106099
   43    44     0     0     0
SMALL
USER_CHARGES

@<TRIPOS>ATOM
      1 C1         -0.2360    1.2166    0.1996 C.3       1 <0>        -0.1567
      2 C2          0.0242   -0.2787    0.0063 C.3       1 <0>        -0.0851
      3 H1         -0.9181   -0.8227    0.0709 H         1 <0>         0.0708
      4 C3          0.6552   -0.5130   -1.3677 C.3       1 <0>        -0.1173
      5 C4          1.9779    0.2507   -1.4584 C.3       1 <0>        -0.1238
      6 C5          2.9297   -0.2465   -0.3686 C.3       1 <0>        -0.1192
      7 C6          2.2986   -0.0121    1.0054 C.3       1 <0>         0.1892
      8 C7          0.9760   -0.7758    1.0961 C.3       1 <0>        -0.1275
      9 C8          3.2504   -0.5093    2.0952 C.3       1 <0>         0.0593
     10 O1          4.4939    0.1878    1.9960 O.3       1 <0>        -0.5692
     11 N1          2.0495    1.4196    1.1905 N.am      1 <0>        -0.7032
     12 C9          1.5436    1.8705    2.3555 C.2       1 <0>         0.5343
     13 O2          1.2070    1.0840    3.2153 O.2       1 <0>        -0.5327
     14 C10         1.3962    3.3518    2.5900 C.3       1 <0>        -0.1281
     15 H2          0.7476    3.8011    1.8379 H         1 <0>         0.1175
     16 C11         2.7767    4.0478    2.6172 C.3       1 <0>        -0.1427
     17 C12         2.6349    5.1115    3.6836 C.2       1 <0>         0.5182
     18 O3          3.3837    6.0546    3.8279 O.2       1 <0>        -0.5277
     19 N2          1.5581    4.8595    4.4476 N.am      1 <0>        -0.6238
     20 C13         0.8707    3.6365    4.0145 C.3       1 <0>         0.1187
     21 C14         1.1251    5.6980    5.5682 C.3       1 <0>         0.0918
     22 H3          0.6517    1.7800   -0.0880 H         1 <0>         0.0681
     23 H4         -1.0776    1.5223   -0.4219 H         1 <0>         0.0461
     24 H5         -0.4674    1.4127    1.2466 H         1 <0>         0.0525
     25 H6          0.8405   -1.5783   -1.5054 H         1 <0>         0.0634
     26 H7         -0.0229   -0.1588   -2.1441 H         1 <0>         0.0634
     27 H8          2.4274    0.0837   -2.4373 H         1 <0>         0.0672
     28 H9          1.7925    1.3159   -1.3207 H         1 <0>         0.0639
     29 H10         3.1150   -1.3118   -0.5063 H         1 <0>         0.0776
     30 H11         3.8719    0.2976   -0.4332 H         1 <0>         0.0792
     31 H12         0.5264   -0.6089    2.0750 H         1 <0>         0.0889
     32 H13         1.1613   -1.8411    0.9584 H         1 <0>         0.0707
     33 H14         2.8085   -0.3264    3.0747 H         1 <0>         0.0696
     34 H15         3.4219   -1.5782    1.9679 H         1 <0>         0.0515
     35 H16         5.1473   -0.0772    2.6578 H         1 <0>         0.3799
     36 H17         2.2487    2.0431    0.4747 H         1 <0>         0.4026
     37 H18         3.5571    3.3369    2.8888 H         1 <0>         0.1122
     38 H19         2.9936    4.5030    1.6508 H         1 <0>         0.1104
     39 H20        -0.2073    3.7960    3.9940 H         1 <0>         0.0855
     40 H21         1.1178    2.8094    4.6800 H         1 <0>         0.0923
     41 H22         1.8071    6.5414    5.6756 H         1 <0>         0.0843
     42 H23         0.1175    6.0674    5.3774 H         1 <0>         0.0638
     43 H24         1.1285    5.1089    6.4853 H         1 <0>         0.0638
@<TRIPOS>BOND
     1    1    2 1
     2    1   22 1
     3    1   23 1
     4    1   24 1
     5    2    3 1
     6    2    8 1
     7    2    4 1
     8    4    5 1
     9    4   25 1
    10    4   26 1
    11    5    6 1
    12    5   27 1
    13    5   28 1
    14    6    7 1
    15    6   29 1
    16    6   30 1
    17    7    8 1
    18    7    9 1
    19    7   11 1
    20    8   31 1
    21    8   32 1
    22    9   10 1
    23    9   33 1
    24    9   34 1
    25   10   35 1
    26   11   12 am
    27   11   36 1
    28   12   13 2
    29   12   14 1
    30   14   15 1
    31   14   20 1
    32   14   16 1
    33   16   17 1
    34   16   37 1
    35   16   38 1
    36   17   18 2
    37   17   19 am
    38   19   20 1
    39   19   21 1
    40   20   39 1
    41   20   40 1
    42   21   41 1
    43   21   42 1
    44   21   43 1
@<TRIPOS>MOLECULE
ZINC06417136
   57    60     0     0     0
SMALL
USER_CHARGES
10,13-dimethyl-2,3,4,5,6,7,8,9,11,12,14,15,16,17-tetradecahydro-1H-cyclopenta[a]phenanthrene-17-carbohydrazide
@<TRIPOS>ATOM
      1 C1          0.0923    2.1178   -2.5963 C.3       1 <0>        -0.1580
      2 C2         -0.5996    2.4774   -1.2873 C.3       1 <0>        -0.0311
      3 C3         -1.9779    1.8781   -1.4121 C.3       1 <0>        -0.1114
      4 C4         -3.0748    2.6031   -0.6686 C.3       1 <0>        -0.1163
      5 C5         -3.0108    4.1099   -0.8852 C.3       1 <0>        -0.1181
      6 C6         -1.6504    4.6234   -0.4171 C.3       1 <0>        -0.1096
      7 C7         -0.5408    3.9653   -1.2095 C.3       1 <0>        -0.0709
      8 H1         -0.7312    4.2843   -2.2286 H         1 <0>         0.0483
      9 C8          0.8065    4.5738   -0.8912 C.3       1 <0>        -0.1099
     10 C9          1.4764    3.8699    0.2890 C.3       1 <0>        -0.1108
     11 C10         1.5887    2.3816   -0.0531 C.3       1 <0>        -0.0645
     12 H2          2.0890    2.3176   -1.0366 H         1 <0>         0.0645
     13 C11         0.1885    1.8000   -0.1719 C.3       1 <0>        -0.0671
     14 H3         -0.3789    2.0875    0.7263 H         1 <0>         0.0714
     15 C12         0.1897    0.2889   -0.2697 C.3       1 <0>        -0.1072
     16 C13         1.0042   -0.4044    0.8370 C.3       1 <0>        -0.1057
     17 C14         1.6640    0.5922    1.7467 C.3       1 <0>        -0.0334
     18 C15         2.4454    1.6335    0.9221 C.3       1 <0>        -0.0790
     19 H4          3.2293    1.1076    0.3333 H         1 <0>         0.0772
     20 C16         3.1608    2.4344    2.0164 C.3       1 <0>        -0.1098
     21 C17         3.5954    1.3339    3.0234 C.3       1 <0>        -0.1077
     22 C18         2.7801    0.0622    2.6687 C.3       1 <0>        -0.1067
     23 H5          2.3326   -0.3570    3.5696 H         1 <0>         0.0886
     24 C19         3.6517   -0.9476    1.9858 C.2       1 <0>         0.5268
     25 O1          4.6016   -0.5818    1.3264 O.2       1 <0>        -0.5228
     26 N1          3.3800   -2.2624    2.1044 N.am      1 <0>        -0.5814
     27 N2          4.1745   -3.1829    1.4819 N.3       1 <0>        -0.6046
     28 C20         0.6408    1.2339    2.6931 C.3       1 <0>        -0.1520
     29 H6          0.0898    1.0352   -2.7232 H         1 <0>         0.0548
     30 H7         -0.4384    2.5822   -3.4274 H         1 <0>         0.0491
     31 H8          1.1206    2.4786   -2.5749 H         1 <0>         0.0568
     32 H9         -1.9575    0.8489   -1.0748 H         1 <0>         0.0694
     33 H10        -2.2427    1.8768   -2.4730 H         1 <0>         0.0551
     34 H11        -2.9757    2.3941    0.3960 H         1 <0>         0.0568
     35 H12        -4.0392    2.2354   -1.0157 H         1 <0>         0.0588
     36 H13        -3.8015    4.5926   -0.3091 H         1 <0>         0.0611
     37 H14        -3.1438    4.3323   -1.9436 H         1 <0>         0.0595
     38 H15        -1.5206    4.3955    0.6421 H         1 <0>         0.0583
     39 H16        -1.6024    5.7043   -0.5585 H         1 <0>         0.0605
     40 H17         0.6665    5.6256   -0.6402 H         1 <0>         0.0618
     41 H18         1.4510    4.5011   -1.7640 H         1 <0>         0.0599
     42 H19         0.8698    3.9959    1.1833 H         1 <0>         0.0627
     43 H20         2.4696    4.2857    0.4473 H         1 <0>         0.0642
     44 H21        -0.8412   -0.0873   -0.2079 H         1 <0>         0.0617
     45 H22         0.5939   -0.0330   -1.2370 H         1 <0>         0.0602
     46 H23         0.3288   -1.0464    1.4236 H         1 <0>         0.0575
     47 H24         1.7399   -1.0591    0.3557 H         1 <0>         0.0646
     48 H25         4.0399    2.9374    1.6044 H         1 <0>         0.0645
     49 H26         2.5004    3.1588    2.4838 H         1 <0>         0.0711
     50 H27         4.6611    1.1331    2.9185 H         1 <0>         0.0753
     51 H28         3.3706    1.6494    4.0413 H         1 <0>         0.0696
     52 H29         2.6203   -2.5550    2.6318 H         1 <0>         0.3989
     53 H30         5.1385   -3.0753    1.7597 H         1 <0>         0.3457
     54 H31         3.8492   -4.1211    1.6607 H         1 <0>         0.3562
     55 H32         0.0640    0.4527    3.1883 H         1 <0>         0.0539
     56 H33         1.1624    1.8303    3.4418 H         1 <0>         0.0602
     57 H34        -0.0308    1.8746    2.1217 H         1 <0>         0.0731
@<TRIPOS>BOND
     1    1    2 1
     2    1   29 1
     3    1   30 1
     4    1   31 1
     5    2    7 1
     6    2   13 1
     7    2    3 1
     8    3    4 1
     9    3   32 1
    10    3   33 1
    11    4    5 1
    12    4   34 1
    13    4   35 1
    14    5    6 1
    15    5   36 1
    16    5   37 1
    17    6    7 1
    18    6   38 1
    19    6   39 1
    20    7    8 1
    21    7    9 1
    22    9   10 1
    23    9   40 1
    24    9   41 1
    25   10   11 1
    26   10   42 1
    27   10   43 1
    28   11   12 1
    29   11   18 1
    30   11   13 1
    31   13   14 1
    32   13   15 1
    33   15   16 1
    34   15   44 1
    35   15   45 1
    36   16   17 1
    37   16   46 1
    38   16   47 1
    39   17   22 1
    40   17   18 1
    41   17   28 1
    42   18   19 1
    43   18   20 1
    44   20   21 1
    45   20   48 1
    46   20   49 1
    47   21   22 1
    48   21   50 1
    49   21   51 1
    50   22   23 1
    51   22   24 1
    52   24   25 2
    53   24   26 am
    54   26   27 1
    55   26   52 1
    56   27   53 1
    57   27   54 1
    58   28   55 1
    59   28   56 1
    60   28   57 1
@<TRIPOS>MOLECULE
ZINC36742395
   37    38     0     0     0
SMALL
USER_CHARGES

@<TRIPOS>ATOM
      1 C1          1.6699   -2.1667    2.1970 C.3       1 <0>        -0.1109
      2 C2          0.7858   -1.7592    1.0466 C.ar      1 <0>        -0.0216
      3 C3          0.8919   -2.4075   -0.1701 C.ar      1 <0>        -0.1368
      4 C4          0.0821   -2.0370   -1.2286 C.ar      1 <0>        -0.0402
      5 C5         -0.8384   -1.0157   -1.0756 C.ar      1 <0>        -0.1677
      6 C6         -0.9508   -0.3606    0.1415 C.ar      1 <0>         0.2189
      7 C7         -0.1376   -0.7383    1.2101 C.ar      1 <0>         0.0746
      8 N1         -0.2504   -0.0839    2.4447 N.am      1 <0>        -0.6752
      9 C8         -0.4695   -0.7964    3.5676 C.2       1 <0>         0.5161
     10 O1         -0.6392   -1.9956    3.5015 O.2       1 <0>        -0.5123
     11 C9         -0.5036   -0.1031    4.9052 C.3       1 <0>        -0.1036
     12 C10         0.8405    0.5823    5.1588 C.3       1 <0>        -0.1113
     13 C11         0.8059    1.2861    6.5169 C.3       1 <0>        -0.1181
     14 C12         0.5425    0.2571    7.6180 C.3       1 <0>        -0.1235
     15 C13        -0.8017   -0.4284    7.3644 C.3       1 <0>        -0.1205
     16 C14        -0.7671   -1.1322    6.0064 C.3       1 <0>        -0.0997
     17 N2         -1.8806    0.6727    0.2986 N.pl3     1 <0>        -0.8721
     18 Br1         0.2342   -2.9285   -2.8893 Br        1 <0>        -0.0475
     19 H1          1.2353   -3.0298    2.7012 H         1 <0>         0.0867
     20 H2          2.6595   -2.4261    1.8206 H         1 <0>         0.0674
     21 H3          1.7545   -1.3391    2.9011 H         1 <0>         0.0601
     22 H4          1.6093   -3.2051   -0.2945 H         1 <0>         0.1338
     23 H5         -1.4690   -0.7284   -1.9039 H         1 <0>         0.1346
     24 H6         -0.1708    0.8818    2.4908 H         1 <0>         0.4039
     25 H7         -1.2982    0.6430    4.9076 H         1 <0>         0.0979
     26 H8          1.6351   -0.1638    5.1564 H         1 <0>         0.0700
     27 H9          1.0282    1.3155    4.3743 H         1 <0>         0.0659
     28 H10         1.7635    1.7745    6.6976 H         1 <0>         0.0673
     29 H11         0.0114    2.0323    6.5193 H         1 <0>         0.0647
     30 H12         1.3370   -0.4891    7.6157 H         1 <0>         0.0636
     31 H13         0.5178    0.7585    8.5856 H         1 <0>         0.0641
     32 H14        -0.9894   -1.1615    8.1489 H         1 <0>         0.0672
     33 H15        -1.5962    0.3178    7.3668 H         1 <0>         0.0626
     34 H16        -1.7247   -1.6206    5.8257 H         1 <0>         0.0699
     35 H17         0.0275   -1.8784    6.0040 H         1 <0>         0.0712
     36 H18        -2.5186    0.8625   -0.4069 H         1 <0>         0.4034
     37 H19        -1.8872    1.1995    1.1131 H         1 <0>         0.3972
@<TRIPOS>BOND
     1    1    2 1
     2    1   19 1
     3    1   20 1
     4    1   21 1
     5    2    7 ar
     6    2    3 ar
     7    3    4 ar
     8    3   22 1
     9    4    5 ar
    10    4   18 1
    11    5    6 ar
    12    5   23 1
    13    6    7 ar
    14    6   17 1
    15    7    8 1
    16    8    9 am
    17    8   24 1
    18    9   10 2
    19    9   11 1
    20   11   16 1
    21   11   12 1
    22   11   25 1
    23   12   13 1
    24   12   26 1
    25   12   27 1
    26   13   14 1
    27   13   28 1
    28   13   29 1
    29   14   15 1
    30   14   30 1
    31   14   31 1
    32   15   16 1
    33   15   32 1
    34   15   33 1
    35   16   34 1
    36   16   35 1
    37   17   36 1
    38   17   37 1
@<TRIPOS>MOLECULE
ZINC40296702
   34    36     0     0     0
SMALL
USER_CHARGES

@<TRIPOS>ATOM
      1 C1         -1.2677    1.1819    0.1824 C.3       1 <0>        -0.1186
      2 C2         -0.5858   -0.1585    0.0849 C.ar      1 <0>        -0.1016
      3 C3         -0.5711   -0.8408   -1.1159 C.ar      1 <0>        -0.0730
      4 C4          0.0543   -2.0715   -1.2061 C.ar      1 <0>        -0.0991
      5 C5          0.6668   -2.6225   -0.0942 C.ar      1 <0>        -0.0767
      6 C6          0.6553   -1.9448    1.1088 C.ar      1 <0>        -0.1103
      7 C7          0.0334   -0.7061    1.2008 C.ar      1 <0>         0.1580
      8 N1          0.0252   -0.0147    2.4166 N.am      1 <0>        -0.6631
      9 C8         -0.0563   -0.6942    3.5776 C.2       1 <0>         0.6066
     10 O1         -0.0400   -1.9108    3.5729 O.2       1 <0>        -0.4992
     11 C9         -0.1648    0.0343    4.8493 C.2       1 <0>        -0.1989
     12 C10        -0.2508   -0.4691    6.1097 C.2       1 <0>        -0.0500
     13 C11        -0.3489    0.4034    7.2083 C.ar      1 <0>        -0.0576
     14 C12        -0.4471    0.0734    8.5853 C.ar      1 <0>        -0.1525
     15 C13        -0.5363    1.0633    9.5337 C.ar      1 <0>         0.2131
     16 C14        -0.5337    2.4122    9.1763 C.ar      1 <0>        -0.1437
     17 C15        -0.4401    2.7619    7.8561 C.ar      1 <0>        -0.0368
     18 C16        -0.3493    1.7820    6.8906 C.ar      1 <0>        -0.1422
     19 S1         -0.2084    1.7973    5.1206 S.3       1 <0>         0.0576
     20 N2         -0.6323    0.7119   10.8850 N.pl3     1 <0>        -0.8776
     21 Br1         0.0717   -3.0029   -2.8517 Br        1 <0>        -0.0480
     22 H1         -0.5535    1.9709   -0.0530 H         1 <0>         0.0771
     23 H2         -2.0970    1.2199   -0.5239 H         1 <0>         0.0774
     24 H3         -1.6459    1.3243    1.1948 H         1 <0>         0.0674
     25 H4         -1.0487   -0.4134   -1.9852 H         1 <0>         0.1384
     26 H5          1.1540   -3.5836   -0.1674 H         1 <0>         0.1379
     27 H6          1.1329   -2.3756    1.9764 H         1 <0>         0.1499
     28 H7          0.0781    0.9538    2.4241 H         1 <0>         0.4140
     29 H8         -0.2442   -1.5376    6.2668 H         1 <0>         0.1475
     30 H9         -0.4520   -0.9629    8.8894 H         1 <0>         0.1286
     31 H10        -0.6055    3.1758    9.9368 H         1 <0>         0.1371
     32 H11        -0.4378    3.8037    7.5713 H         1 <0>         0.1363
     33 H12        -0.6353   -0.2229   11.1440 H         1 <0>         0.4008
     34 H13        -0.6958    1.4031   11.5626 H         1 <0>         0.4012
@<TRIPOS>BOND
     1    1    2 1
     2    1   22 1
     3    1   23 1
     4    1   24 1
     5    2    7 ar
     6    2    3 ar
     7    3    4 ar
     8    3   25 1
     9    4    5 ar
    10    4   21 1
    11    5    6 ar
    12    5   26 1
    13    6    7 ar
    14    6   27 1
    15    7    8 1
    16    8    9 am
    17    8   28 1
    18    9   10 2
    19    9   11 1
    20   11   19 1
    21   11   12 2
    22   12   13 1
    23   12   29 1
    24   13   18 ar
    25   13   14 ar
    26   14   15 ar
    27   14   30 1
    28   15   16 ar
    29   15   20 1
    30   16   17 ar
    31   16   31 1
    32   17   18 ar
    33   17   32 1
    34   18   19 1
    35   20   33 1
    36   20   34 1
@<TRIPOS>MOLECULE
ZINC49564540
   30    31     0     0     0
SMALL
USER_CHARGES

@<TRIPOS>ATOM
      1 C1          1.7157    0.7644   -1.5012 C.3       1 <0>         0.0244
      2 O1          1.1465   -0.4448   -0.9954 O.3       1 <0>        -0.3096
      3 C2          1.4965   -0.8112    0.2667 C.ar      1 <0>         0.1271
      4 C3          2.3636   -0.0213    1.0034 C.ar      1 <0>        -0.2221
      5 C4          2.7186   -0.3955    2.2883 C.ar      1 <0>         0.1198
      6 C5          2.2088   -1.5588    2.8394 C.ar      1 <0>        -0.1623
      7 C6          1.3435   -2.3515    2.1092 C.ar      1 <0>        -0.0879
      8 C7          0.9791   -1.9788    0.8234 C.ar      1 <0>         0.1314
      9 N1          0.0974   -2.7778    0.0844 N.pl3     1 <0>        -0.6744
     10 C8          0.2450   -4.1703    0.0868 C.ar      1 <0>         0.1460
     11 C9          1.3318   -4.7533    0.7213 C.ar      1 <0>        -0.1446
     12 C10         1.4759   -6.1282    0.7226 C.ar      1 <0>        -0.0996
     13 C11         0.5384   -6.9265    0.0918 C.ar      1 <0>        -0.0856
     14 C12        -0.5487   -6.3532   -0.5434 C.ar      1 <0>        -0.1326
     15 C13        -0.7037   -4.9753   -0.5440 C.ar      1 <0>         0.1707
     16 N2         -1.8059   -4.3933   -1.1811 N.pl3     1 <0>        -0.8785
     17 Br1         0.7438   -8.8063    0.0974 Br        1 <0>        -0.0552
     18 F1          3.5645    0.3760    3.0057 F         1 <0>        -0.1347
     19 H1          2.8022    0.6779   -1.5121 H         1 <0>         0.0594
     20 H2          1.3550    0.9395   -2.5148 H         1 <0>         0.1045
     21 H3          1.4239    1.5983   -0.8627 H         1 <0>         0.0588
     22 H4          2.7631    0.8863    0.5754 H         1 <0>         0.1448
     23 H5          2.4882   -1.8477    3.8419 H         1 <0>         0.1433
     24 H6          0.9475   -3.2587    2.5411 H         1 <0>         0.1485
     25 H7         -0.6154   -2.3666   -0.4291 H         1 <0>         0.4079
     26 H8          2.0659   -4.1330    1.2141 H         1 <0>         0.1387
     27 H9          2.3228   -6.5805    1.2172 H         1 <0>         0.1320
     28 H10        -1.2786   -6.9790   -1.0353 H         1 <0>         0.1329
     29 H11        -1.9108   -3.4289   -1.1844 H         1 <0>         0.3938
     30 H12        -2.4648   -4.9543   -1.6194 H         1 <0>         0.4031
@<TRIPOS>BOND
     1    1    2 1
     2    1   19 1
     3    1   20 1
     4    1   21 1
     5    2    3 1
     6    3    8 ar
     7    3    4 ar
     8    4    5 ar
     9    4   22 1
    10    5    6 ar
    11    5   18 1
    12    6    7 ar
    13    6   23 1
    14    7    8 ar
    15    7   24 1
    16    8    9 1
    17    9   10 1
    18    9   25 1
    19   10   15 ar
    20   10   11 ar
    21   11   12 ar
    22   11   26 1
    23   12   13 ar
    24   12   27 1
    25   13   14 ar
    26   13   17 1
    27   14   15 ar
    28   14   28 1
    29   15   16 1
    30   16   29 1
    31   16   30 1
@<TRIPOS>MOLECULE
ZINC52859157
   36    38     0     0     0
SMALL
USER_CHARGES

@<TRIPOS>ATOM
      1 C1         -0.5278    1.5599    0.8850 C.ar      1 <0>        -0.1502
      2 C2          0.5706    2.3871    1.0315 C.ar      1 <0>        -0.0772
      3 C3          1.8437    1.8718    0.8995 C.ar      1 <0>        -0.1524
      4 C4          2.0268    0.5215    0.6180 C.ar      1 <0>         0.1403
      5 C5          0.9257   -0.3031    0.4686 C.ar      1 <0>        -0.1897
      6 C6         -0.3498    0.2193    0.6049 C.ar      1 <0>        -0.0680
      7 C7          1.0794   -1.7692    0.1521 C.3       1 <0>         0.1964
      8 H1          0.8771   -1.9349   -0.9060 H         1 <0>         0.0982
      9 C8          2.5063   -2.2195    0.4745 C.3       1 <0>        -0.1681
     10 C9          3.4818   -1.2104   -0.1447 C.3       1 <0>         0.0673
     11 O1          3.2954    0.0502    0.5006 O.3       1 <0>        -0.3145
     12 N1          0.1312   -2.5435    0.9568 N.pl3     1 <0>        -0.7228
     13 C10        -1.1743   -2.7207    0.5134 C.ar      1 <0>         0.2627
     14 C11        -1.5483   -2.2801   -0.7496 C.ar      1 <0>        -0.1866
     15 C12        -2.8447   -2.4568   -1.1882 C.ar      1 <0>        -0.0368
     16 C13        -3.7831   -3.0744   -0.3749 C.ar      1 <0>        -0.0897
     17 C14        -3.4304   -3.5187    0.8816 C.ar      1 <0>        -0.0193
     18 C15        -2.1198   -3.3511    1.3377 C.ar      1 <0>        -0.1748
     19 C16        -1.7345   -3.8282    2.6765 C.2       1 <0>         0.3991
     20 S1         -1.9183   -2.8040    4.0359 S.2       1 <0>        -0.5232
     21 N2         -1.2371   -5.0712    2.8315 N.pl3     1 <0>        -0.7563
     22 Cl1        -5.4100   -3.2884   -0.9416 Cl        1 <0>        -0.0640
     23 H2         -1.5245    1.9611    0.9941 H         1 <0>         0.1256
     24 H3          0.4321    3.4359    1.2487 H         1 <0>         0.1302
     25 H4          2.7008    2.5187    1.0147 H         1 <0>         0.1313
     26 H5         -1.2093   -0.4248    0.4915 H         1 <0>         0.1290
     27 H6          2.6465   -2.2505    1.5550 H         1 <0>         0.0847
     28 H7          2.6837   -3.2086    0.0521 H         1 <0>         0.0932
     29 H8          4.5063   -1.5512    0.0044 H         1 <0>         0.1150
     30 H9          3.2790   -1.1105   -1.2110 H         1 <0>         0.0696
     31 H10         0.4144   -2.9326    1.7990 H         1 <0>         0.4020
     32 H11        -0.8236   -1.7982   -1.3891 H         1 <0>         0.1410
     33 H12        -3.1304   -2.1117   -2.1709 H         1 <0>         0.1408
     34 H13        -4.1648   -3.9990    1.5112 H         1 <0>         0.1388
     35 H14        -1.1329   -5.6515    2.0613 H         1 <0>         0.4056
     36 H15        -0.9832   -5.3855    3.7134 H         1 <0>         0.4229
@<TRIPOS>BOND
     1    1    6 ar
     2    1    2 ar
     3    1   23 1
     4    2    3 ar
     5    2   24 1
     6    3    4 ar
     7    3   25 1
     8    4   11 1
     9    4    5 ar
    10    5    6 ar
    11    5    7 1
    12    6   26 1
    13    7    8 1
    14    7    9 1
    15    7   12 1
    16    9   10 1
    17    9   27 1
    18    9   28 1
    19   10   11 1
    20   10   29 1
    21   10   30 1
    22   12   13 1
    23   12   31 1
    24   13   18 ar
    25   13   14 ar
    26   14   15 ar
    27   14   32 1
    28   15   16 ar
    29   15   33 1
    30   16   17 ar
    31   16   22 1
    32   17   18 ar
    33   17   34 1
    34   18   19 1
    35   19   20 2
    36   19   21 1
    37   21   35 1
    38   21   36 1
@<TRIPOS>MOLECULE
ZINC00785054
   47    49     0     0     0
SMALL
USER_CHARGES
5-[(6-carboxy-1-cyclohex-3-enyl)carbonylamino]-2-morpholino-benzoic acid
@<TRIPOS>ATOM
      1 C1         -2.5843    5.4979    3.5100 C.ar      1 <0>        -0.1496
      2 C2         -1.9843    5.0492    2.3518 C.ar      1 <0>        -0.1507
      3 C3         -1.5868    3.7230    2.2406 C.ar      1 <0>         0.0808
      4 C4         -1.7879    2.8423    3.3154 C.ar      1 <0>        -0.0717
      5 C5         -2.3918    3.3078    4.4865 C.ar      1 <0>        -0.0738
      6 C6         -2.7866    4.6305    4.5788 C.ar      1 <0>         0.1470
      7 N1         -3.3921    5.0985    5.7533 N.am      1 <0>        -0.6520
      8 C7         -4.1767    4.2783    6.4799 C.2       1 <0>         0.5263
      9 O1         -4.4284    3.1632    6.0743 O.2       1 <0>        -0.5177
     10 C8         -4.7413    4.7465    7.7964 C.3       1 <0>        -0.0865
     11 H1         -4.7699    5.8360    7.8160 H         1 <0>         0.0862
     12 C9         -6.1560    4.1915    7.9759 C.3       1 <0>        -0.0650
     13 C10        -6.1042    2.7102    8.2106 C.2       1 <0>        -0.1662
     14 C11        -5.0373    2.0691    8.5660 C.2       1 <0>        -0.1178
     15 C12        -3.7009    2.7162    8.7837 C.3       1 <0>        -0.0748
     16 C13        -3.8675    4.2285    8.9457 C.3       1 <0>        -0.1142
     17 H2         -4.3505    4.4436    9.8989 H         1 <0>         0.0785
     18 C14        -2.5169    4.8953    8.8955 C.2       1 <0>         0.4683
     19 O2         -2.2738    5.7031    8.0305 O.co2     1 <0>        -0.6351
     20 C15        -1.3652    1.4353    3.2090 C.2       1 <0>         0.4907
     21 O3         -0.7544    1.0568    2.2289 O.co2     1 <0>        -0.6056
     22 N2         -0.9865    3.2705    1.0712 N.pl3     1 <0>        -0.4561
     23 C16        -1.8783    3.4529   -0.0834 C.3       1 <0>         0.0288
     24 C17        -1.2033    2.8894   -1.3367 C.3       1 <0>         0.0678
     25 O4          0.0613    3.5313   -1.5215 O.3       1 <0>        -0.3956
     26 C18         0.9546    3.3724   -0.4159 C.3       1 <0>         0.0675
     27 C19         0.3020    3.9417    0.8465 C.3       1 <0>         0.0329
     28 H3         -2.8950    6.5292    3.5890 H         1 <0>         0.1134
     29 H4         -1.8266    5.7298    1.5281 H         1 <0>         0.1097
     30 H5         -2.5503    2.6364    5.3175 H         1 <0>         0.1463
     31 H6         -3.2463    6.0127    6.0430 H         1 <0>         0.4139
     32 H7         -6.6286    4.6764    8.8300 H         1 <0>         0.0699
     33 H8         -6.7397    4.3928    7.0776 H         1 <0>         0.0637
     34 H9         -7.0135    2.1438    8.0741 H         1 <0>         0.0919
     35 H10        -5.1138    1.0023    8.7155 H         1 <0>         0.0941
     36 H11        -3.2424    2.3046    9.6828 H         1 <0>         0.0718
     37 H12        -3.0576    2.5135    7.9274 H         1 <0>         0.0771
     38 H13        -2.0779    4.5152   -0.2240 H         1 <0>         0.0322
     39 H14        -2.8159    2.9259    0.0932 H         1 <0>         0.0806
     40 H15        -1.8356    3.0744   -2.2050 H         1 <0>         0.0884
     41 H16        -1.0529    1.8164   -1.2178 H         1 <0>         0.0640
     42 H17         1.1678    2.3135   -0.2696 H         1 <0>         0.0658
     43 H18         1.8832    3.9059   -0.6187 H         1 <0>         0.0892
     44 H19         0.9552    3.7715    1.7023 H         1 <0>         0.0832
     45 H20         0.1378    5.0119    0.7204 H         1 <0>         0.0316
     46 O5         -1.5842    4.5918    9.8118 O.co2     1 <0>        -0.7674
     47 O6         -1.6557    0.5677    4.1985 O.co2     1 <0>        -0.7618
@<TRIPOS>BOND
     1    1    6 ar
     2    1    2 ar
     3    1   28 1
     4    2    3 ar
     5    2   29 1
     6    3    4 ar
     7    3   22 1
     8    4    5 ar
     9    4   20 1
    10    5    6 ar
    11    5   30 1
    12    6    7 1
    13    7    8 am
    14    7   31 1
    15    8    9 2
    16    8   10 1
    17   10   11 1
    18   10   16 1
    19   10   12 1
    20   12   13 1
    21   12   32 1
    22   12   33 1
    23   13   14 2
    24   13   34 1
    25   14   15 1
    26   14   35 1
    27   15   16 1
    28   15   36 1
    29   15   37 1
    30   16   17 1
    31   16   18 1
    32   18   19 2
    33   18   46 1
    34   20   21 2
    35   20   47 1
    36   22   27 1
    37   22   23 1
    38   23   24 1
    39   23   38 1
    40   23   39 1
    41   24   25 1
    42   24   40 1
    43   24   41 1
    44   25   26 1
    45   26   27 1
    46   26   42 1
    47   26   43 1
    48   27   44 1
    49   27   45 1
@<TRIPOS>MOLECULE
ZINC31667308
   35    36     0     0     0
SMALL
USER_CHARGES
2-hydroxy-5-[(2-methoxycarbonyl-3-thienyl)sulfamoyl]-4-methyl-benzoic acid
@<TRIPOS>ATOM
      1 C1          5.7510    1.0773   -2.4494 C.3       1 <0>        -0.1587
      2 C2          4.7368    0.2418   -3.1873 C.ar      1 <0>         0.0676
      3 C3          4.5670    0.4112   -4.5473 C.ar      1 <0>        -0.2238
      4 C4          3.6318   -0.3506   -5.2313 C.ar      1 <0>         0.2477
      5 C5          2.8642   -1.2965   -4.5366 C.ar      1 <0>        -0.2660
      6 C6          3.0503   -1.4610   -3.1615 C.ar      1 <0>         0.0637
      7 C7          3.9843   -0.6951   -2.4982 C.ar      1 <0>        -0.7333
      8 S1          4.2175   -0.9034   -0.7642 S.o2      1 <0>         2.6125
      9 O1          5.6170   -1.0328   -0.5552 O.2       1 <0>        -0.9958
     10 O2          3.2898   -1.8953   -0.3459 O.2       1 <0>        -1.0415
     11 N1          3.7588    0.5110   -0.0351 N.2       1 <0>        -1.0177
     12 C8          2.4531    0.9724   -0.1712 C.2       1 <0>         0.3139
     13 C9          1.3808    0.1058   -0.2236 C.2       1 <0>        -0.2446
     14 C10         0.1285    0.6088   -0.3575 C.2       1 <0>        -0.1496
     15 S2          0.3864    2.3216   -0.4171 S.3       1 <0>         0.0373
     16 C11         2.1635    2.3345   -0.2620 C.2       1 <0>        -0.3321
     17 C12         3.0472    3.4363   -0.2381 C.2       1 <0>         0.5546
     18 O3          4.2453    3.2532   -0.1246 O.2       1 <0>        -0.4999
     19 O4          2.5631    4.6923   -0.3411 O.3       1 <0>        -0.3720
     20 C13         3.5139    5.7586   -0.3096 C.3       1 <0>         0.0410
     21 C14         1.8666   -2.1119   -5.2525 C.2       1 <0>         0.5143
     22 O5          1.7076   -1.9659   -6.4483 O.co2     1 <0>        -0.6377
     23 O6          1.1308   -3.0194   -4.5809 O.co2     1 <0>        -0.7348
     24 O7          3.4605   -0.1820   -6.5662 O.3       1 <0>        -0.5360
     25 H1          6.2473    1.7596   -3.1552 H         1 <0>         0.0564
     26 H2          6.5012    0.4193   -1.9866 H         1 <0>         0.0943
     27 H3          5.2448    1.6628   -1.6678 H         1 <0>         0.1130
     28 H4          5.1604    1.1409   -5.0781 H         1 <0>         0.1201
     29 H5          2.4628   -2.1871   -2.6193 H         1 <0>         0.1411
     30 H6          1.5368   -0.9609   -0.1584 H         1 <0>         0.1635
     31 H7         -0.8061    0.0706   -0.4139 H         1 <0>         0.1769
     32 H8          2.9889    6.7208   -0.4020 H         1 <0>         0.0853
     33 H9          4.2204    5.6447   -1.1450 H         1 <0>         0.0516
     34 H10         4.0643    5.7311    0.6424 H         1 <0>         0.0502
     35 H11         2.7179   -0.7877   -7.1063 H         1 <0>         0.4385
@<TRIPOS>BOND
     1    1    2 1
     2    1   25 1
     3    1   26 1
     4    1   27 1
     5    2    7 ar
     6    2    3 ar
     7    3    4 ar
     8    3   28 1
     9    4    5 ar
    10    4   24 1
    11    5    6 ar
    12    5   21 1
    13    6    7 ar
    14    6   29 1
    15    7    8 1
    16    8    9 2
    17    8   10 2
    18    8   11 1
    19   11   12 1
    20   12   16 2
    21   12   13 1
    22   13   14 2
    23   13   30 1
    24   14   15 1
    25   14   31 1
    26   15   16 1
    27   16   17 1
    28   17   18 2
    29   17   19 1
    30   19   20 1
    31   20   32 1
    32   20   33 1
    33   20   34 1
    34   21   22 2
    35   21   23 1
    36   24   35 1
@<TRIPOS>MOLECULE
ZINC39021842
   51    54     0     0     0
SMALL
USER_CHARGES

@<TRIPOS>ATOM
      1 C1         -0.0187    1.5258    0.0104 C.3       1 <0>        -0.1345
      2 C2          0.0021   -0.0041    0.0020 C.3       1 <0>        -0.0576
      3 C3         -1.4337   -0.5383    0.0362 C.3       1 <0>        -0.1144
      4 C4         -1.3967   -2.0420    0.0745 C.2       1 <0>         0.3232
      5 C5         -0.3743   -2.7049    0.6612 C.2       1 <0>        -0.4356
      6 C6         -0.3625   -4.2144    0.6082 C.3       1 <0>         0.0774
      7 H1          0.1822   -4.5419   -0.2773 H         1 <0>         0.0462
      8 C7          0.3208   -4.7688    1.8605 C.3       1 <0>        -0.1675
      9 H2         -0.3540   -4.6853    2.7124 H         1 <0>         0.0869
     10 C8          1.5786   -3.9835    2.1328 C.2       1 <0>         0.4346
     11 N1          2.6403   -4.5975    2.6155 N.2       1 <0>        -0.6334
     12 C9          2.5772   -5.9289    2.8878 C.2       1 <0>         0.5481
     13 N2          1.7551   -6.7230    2.1382 N.2       1 <0>        -0.6760
     14 C10         0.6615   -6.2197    1.6253 C.2       1 <0>         0.4531
     15 O1         -0.1544   -6.9879    0.8806 O.3       1 <0>        -0.6747
     16 N3          3.2966   -6.4442    3.8572 N.2       1 <0>        -0.7824
     17 N4          1.6201   -2.6722    1.9167 N.2       1 <0>        -0.6226
     18 C11         0.6815   -2.0235    1.2760 C.2       1 <0>         0.3079
     19 C12         0.7417   -0.5149    1.2409 C.3       1 <0>        -0.0635
     20 C13        -1.7788   -4.7250    0.5431 C.ar      1 <0>         0.0758
     21 C14        -2.6667   -4.4274    1.5602 C.ar      1 <0>        -0.1129
     22 C15        -3.9670   -4.8934    1.5051 C.ar      1 <0>        -0.1694
     23 C16        -4.3831   -5.6604    0.4287 C.ar      1 <0>         0.0521
     24 C17        -3.4895   -5.9596   -0.5952 C.ar      1 <0>         0.0951
     25 C18        -2.1889   -5.4853   -0.5362 C.ar      1 <0>        -0.1166
     26 O2         -3.8932   -6.7119   -1.6538 O.3       1 <0>        -0.3217
     27 C19        -2.9221   -6.9793   -2.6675 C.3       1 <0>         0.0321
     28 O3         -5.6618   -6.1200    0.3732 O.3       1 <0>        -0.3200
     29 C20        -6.5233   -5.7742    1.4596 C.3       1 <0>         0.0354
     30 O4         -2.4014   -2.7413   -0.4860 O.3       1 <0>        -0.6247
     31 C21         0.7095   -0.5013   -1.2602 C.3       1 <0>        -0.1413
     32 H3          1.0039    1.9031    0.0027 H         1 <0>         0.0522
     33 H4         -0.5459    1.8868   -0.8726 H         1 <0>         0.0511
     34 H5         -0.5289    1.8773    0.9072 H         1 <0>         0.0516
     35 H6         -1.9413   -0.1633    0.9248 H         1 <0>         0.0719
     36 H7         -1.9665   -0.2093   -0.8560 H         1 <0>         0.0686
     37 H8          3.8782   -5.8748    4.3849 H         1 <0>         0.3052
     38 H9          1.7825   -0.1934    1.2011 H         1 <0>         0.0782
     39 H10         0.2707   -0.1117    2.1374 H         1 <0>         0.0767
     40 H11        -2.3437   -3.8297    2.3997 H         1 <0>         0.1009
     41 H12        -4.6585   -4.6601    2.3013 H         1 <0>         0.1103
     42 H13        -1.4945   -5.7129   -1.3314 H         1 <0>         0.1129
     43 H14        -2.5726   -6.0387   -3.0930 H         1 <0>         0.0471
     44 H15        -2.0796   -7.5159   -2.2311 H         1 <0>         0.0555
     45 H16        -3.3733   -7.5874   -3.4515 H         1 <0>         0.0828
     46 H17        -6.1111   -6.1665    2.3893 H         1 <0>         0.0443
     47 H18        -6.6047   -4.6893    1.5276 H         1 <0>         0.0441
     48 H19        -7.5111   -6.2028    1.2907 H         1 <0>         0.0826
     49 H20         1.7325   -0.1253   -1.2754 H         1 <0>         0.0479
     50 H21         0.7229   -1.5912   -1.2637 H         1 <0>         0.0706
     51 H22         0.1771   -0.1417   -2.1407 H         1 <0>         0.0462
@<TRIPOS>BOND
     1    1    2 1
     2    1   32 1
     3    1   33 1
     4    1   34 1
     5    2   19 1
     6    2    3 1
     7    2   31 1
     8    3    4 1
     9    3   35 1
    10    3   36 1
    11    4    5 2
    12    4   30 1
    13    5   18 1
    14    5    6 1
    15    6    7 1
    16    6    8 1
    17    6   20 1
    18    8    9 1
    19    8   14 1
    20    8   10 1
    21   10   11 2
    22   10   17 1
    23   11   12 1
    24   12   13 1
    25   12   16 2
    26   13   14 2
    27   14   15 1
    28   16   37 1
    29   17   18 2
    30   18   19 1
    31   19   38 1
    32   19   39 1
    33   20   25 ar
    34   20   21 ar
    35   21   22 ar
    36   21   40 1
    37   22   23 ar
    38   22   41 1
    39   23   24 ar
    40   23   28 1
    41   24   25 ar
    42   24   26 1
    43   25   42 1
    44   26   27 1
    45   27   43 1
    46   27   44 1
    47   27   45 1
    48   28   29 1
    49   29   46 1
    50   29   47 1
    51   29   48 1
    52   31   49 1
    53   31   50 1
    54   31   51 1
@<TRIPOS>MOLECULE
ZINC38412642
   46    49     0     0     0
SMALL
USER_CHARGES

@<TRIPOS>ATOM
      1 C1         -0.0187    1.5258    0.0104 C.3       1 <0>        -0.1436
      2 C2          0.0021   -0.0041    0.0020 C.3       1 <0>        -0.0943
      3 C3          0.7421   -0.5109    1.2415 C.3       1 <0>        -0.1464
      4 C4         -1.4333   -0.5336    0.0129 C.3       1 <0>        -0.1279
      5 C5         -1.4157   -2.0577   -0.1212 C.3       1 <0>         0.1072
      6 N1         -2.7901   -2.5647   -0.1108 N.am      1 <0>        -0.5231
      7 C6         -3.3807   -2.9004    1.1060 C.2       1 <0>         0.1459
      8 C7         -2.8447   -2.8277    2.3930 C.2       1 <0>        -0.1843
      9 C8         -3.5907   -3.2048    3.4515 C.2       1 <0>        -0.2524
     10 S1         -5.0579   -3.6805    2.7847 S.3       1 <0>         0.1948
     11 C9         -4.6951   -3.3814    1.0752 C.2       1 <0>        -0.2294
     12 C10        -5.4036   -3.5269   -0.1127 C.2       1 <0>         0.3727
     13 C11        -4.7743   -3.1781   -1.3179 C.2       1 <0>        -0.3660
     14 C12        -3.4494   -2.6889   -1.2717 C.2       1 <0>         0.5496
     15 O1         -2.8920   -2.3770   -2.3106 O.2       1 <0>        -0.5400
     16 C13        -5.4811   -3.3136   -2.6015 C.2       1 <0>         0.5485
     17 N2         -4.8349   -2.9770   -3.6750 N.2       1 <0>        -0.9697
     18 S2         -5.5483   -3.0846   -5.1677 S.o2      1 <0>         2.5978
     19 O2         -5.3789   -1.8210   -5.7952 O.2       1 <0>        -1.0167
     20 O3         -5.0931   -4.2967   -5.7534 O.2       1 <0>        -1.0256
     21 C14        -7.2759   -3.2762   -4.8672 C.ar      1 <0>        -0.7848
     22 C15        -8.1906   -3.1043   -5.8822 C.ar      1 <0>        -0.0039
     23 C16        -9.5458   -3.2578   -5.6225 C.ar      1 <0>        -0.0403
     24 C17        -9.9723   -3.5828   -4.3430 C.ar      1 <0>        -0.0835
     25 C18        -9.0541   -3.7551   -3.3267 C.ar      1 <0>        -0.1545
     26 C19        -7.6966   -3.6042   -3.5834 C.ar      1 <0>         0.2750
     27 N3         -6.7607   -3.7883   -2.5646 N.2       1 <0>        -0.6556
     28 O4        -10.4538   -3.0893   -6.6207 O.3       1 <0>        -0.5022
     29 O5         -6.6726   -3.9952   -0.1068 O.3       1 <0>        -0.6008
     30 H1          1.0039    1.9031    0.0027 H         1 <0>         0.0481
     31 H2         -0.5459    1.8868   -0.8726 H         1 <0>         0.0559
     32 H3         -0.5289    1.8773    0.9072 H         1 <0>         0.0508
     33 H4          0.5123   -0.3556   -0.8948 H         1 <0>         0.0718
     34 H5          1.7647   -0.1336    1.2338 H         1 <0>         0.0477
     35 H6          0.2319   -0.1594    2.1383 H         1 <0>         0.0518
     36 H7          0.7568   -1.6008    1.2356 H         1 <0>         0.0562
     37 H8         -1.9156   -0.2570    0.9504 H         1 <0>         0.0592
     38 H9         -1.9862   -0.1019   -0.8214 H         1 <0>         0.0734
     39 H10        -0.9334   -2.3344   -1.0587 H         1 <0>         0.0875
     40 H11        -0.8628   -2.4894    0.7131 H         1 <0>         0.0666
     41 H12        -1.8361   -2.4709    2.5405 H         1 <0>         0.1207
     42 H13        -3.3083   -3.2017    4.4940 H         1 <0>         0.1764
     43 H14        -7.8549   -2.8507   -6.8769 H         1 <0>         0.1030
     44 H15       -11.0267   -3.7011   -4.1412 H         1 <0>         0.1070
     45 H16        -9.3907   -4.0076   -2.3320 H         1 <0>         0.1214
     46 H17       -10.6572   -3.8993   -7.1081 H         1 <0>         0.3567
@<TRIPOS>BOND
     1    1    2 1
     2    1   30 1
     3    1   31 1
     4    1   32 1
     5    2    3 1
     6    2    4 1
     7    2   33 1
     8    3   34 1
     9    3   35 1
    10    3   36 1
    11    4    5 1
    12    4   37 1
    13    4   38 1
    14    5    6 1
    15    5   39 1
    16    5   40 1
    17    6   14 am
    18    6    7 1
    19    7   11 2
    20    7    8 1
    21    8    9 2
    22    8   41 1
    23    9   10 1
    24    9   42 1
    25   10   11 1
    26   11   12 1
    27   12   13 2
    28   12   29 1
    29   13   14 1
    30   13   16 1
    31   14   15 2
    32   16   27 1
    33   16   17 2
    34   17   18 1
    35   18   19 2
    36   18   20 2
    37   18   21 1
    38   21   26 ar
    39   21   22 ar
    40   22   23 ar
    41   22   43 1
    42   23   24 ar
    43   23   28 1
    44   24   25 ar
    45   24   44 1
    46   25   26 ar
    47   25   45 1
    48   26   27 1
    49   28   46 1
@<TRIPOS>MOLECULE
ZINC16902118
   39    41     0     0     0
SMALL
USER_CHARGES

@<TRIPOS>ATOM
      1 C1          0.5632    0.6207   -0.2704 C.ar      1 <0>        -0.0652
      2 C2          1.5928    1.5410   -0.1997 C.ar      1 <0>        -0.1570
      3 C3          2.9033    1.1064   -0.0712 C.ar      1 <0>         0.2033
      4 C4          3.1789   -0.2584   -0.0136 C.ar      1 <0>         0.0447
      5 C5          2.1430   -1.1743   -0.0850 C.ar      1 <0>        -0.0914
      6 C6          0.8371   -0.7338   -0.2132 C.ar      1 <0>        -0.0757
      7 Cl1        -0.4601   -1.8841   -0.3020 Cl        1 <0>        -0.0808
      8 O1          4.4627   -0.6897    0.1119 O.3       1 <0>        -0.4851
      9 N1          3.9474    2.0368    0.0000 N.pl3     1 <0>        -0.7156
     10 C7          3.6558    3.4712   -0.0612 C.3       1 <0>         0.1216
     11 H1          2.7053    3.6893    0.4256 H         1 <0>         0.1328
     12 C8          4.7957    4.2848    0.5846 C.3       1 <0>        -0.1568
     13 C9          5.3099    5.1397   -0.5531 C.2       1 <0>         0.5205
     14 O2          6.2191    5.9379   -0.4764 O.2       1 <0>        -0.4627
     15 N2          4.6019    4.8746   -1.6580 N.am      1 <0>        -0.5089
     16 C10         3.6416    3.9509   -1.4962 C.2       1 <0>         0.5016
     17 O3          2.8848    3.5614   -2.3594 O.2       1 <0>        -0.4473
     18 C11         4.8422    5.5114   -2.8845 C.ar      1 <0>         0.0478
     19 C12         3.8979    6.3807   -3.4087 C.ar      1 <0>        -0.0633
     20 C13         4.1331    7.0169   -4.6307 C.ar      1 <0>        -0.1501
     21 C14         5.3197    6.7767   -5.3225 C.ar      1 <0>        -0.0280
     22 C15         6.2669    5.9020   -4.7914 C.ar      1 <0>        -0.1500
     23 C16         6.0259    5.2740   -3.5663 C.ar      1 <0>        -0.0628
     24 C17         7.5244    5.6441   -5.5192 C.2       1 <0>         0.5292
     25 O4          7.7364    6.1976   -6.5889 O.co2     1 <0>        -0.6850
     26 O5          8.3546    4.8769   -5.0527 O.co2     1 <0>        -0.6989
     27 C18         3.1269    7.9412   -5.1882 C.2       1 <0>         0.5295
     28 O6          2.0864    8.1509   -4.5810 O.co2     1 <0>        -0.6989
     29 O7          3.3336    8.4974   -6.2575 O.co2     1 <0>        -0.6849
     30 H2         -0.4575    0.9604   -0.3660 H         1 <0>         0.1361
     31 H3          1.3763    2.5981   -0.2450 H         1 <0>         0.1385
     32 H4          2.3540   -2.2326   -0.0406 H         1 <0>         0.1369
     33 H5          4.7550   -0.7933    1.0278 H         1 <0>         0.3809
     34 H6          4.8638    1.7316    0.0899 H         1 <0>         0.4121
     35 H7          4.4119    4.9098    1.3909 H         1 <0>         0.1313
     36 H8          5.5798    3.6224    0.9514 H         1 <0>         0.1243
     37 H9          2.9791    6.5662   -2.8723 H         1 <0>         0.1201
     38 H10         5.5044    7.2664   -6.2671 H         1 <0>         0.1380
     39 H11         6.7610    4.5999   -3.1522 H         1 <0>         0.1192
@<TRIPOS>BOND
     1    1    6 ar
     2    1    2 ar
     3    1   30 1
     4    2    3 ar
     5    2   31 1
     6    3    4 ar
     7    3    9 1
     8    4    5 ar
     9    4    8 1
    10    5    6 ar
    11    5   32 1
    12    6    7 1
    13    8   33 1
    14    9   10 1
    15    9   34 1
    16   10   11 1
    17   10   16 1
    18   10   12 1
    19   12   13 1
    20   12   35 1
    21   12   36 1
    22   13   14 2
    23   13   15 am
    24   15   16 am
    25   15   18 1
    26   16   17 2
    27   18   23 ar
    28   18   19 ar
    29   19   20 ar
    30   19   37 1
    31   20   21 ar
    32   20   27 1
    33   21   22 ar
    34   21   38 1
    35   22   23 ar
    36   22   24 1
    37   23   39 1
    38   24   25 2
    39   24   26 1
    40   27   28 2
    41   27   29 1
@<TRIPOS>MOLECULE
ZINC65844564
   43    45     0     0     0
SMALL
USER_CHARGES

@<TRIPOS>ATOM
      1 C1          0.1362    1.5008   -0.0064 C.3       1 <0>        -0.0621
      2 C2          0.0763   -0.0050   -0.0060 C.ar      1 <0>        -0.1225
      3 C3         -0.0994   -0.6996   -1.2046 C.ar      1 <0>        -0.0906
      4 C4         -0.1533   -2.0957   -1.1953 C.ar      1 <0>        -0.1905
      5 C5         -0.0333   -2.7827   -0.0047 C.ar      1 <0>        -0.0904
      6 C6          0.1401   -2.0948    1.1816 C.ar      1 <0>        -0.2736
      7 C7          0.2010   -0.7057    1.1833 C.ar      1 <0>         0.2656
      8 N1          0.3822   -0.0159    2.3847 N.2       1 <0>        -1.0858
      9 S1          0.5313   -0.8530    3.8058 S.o2      1 <0>         2.6139
     10 O1         -0.7203   -1.4844    4.0384 O.2       1 <0>        -1.0460
     11 O2          1.7483   -1.5819    3.7221 O.2       1 <0>        -1.0380
     12 C8          0.7428    0.3344    5.0902 C.2       1 <0>        -0.6823
     13 C9          1.9616    0.8492    5.5430 C.2       1 <0>        -0.0034
     14 C10         1.6738    1.7437    6.5519 C.2       1 <0>        -0.0889
     15 N2          0.3061    1.7691    6.7059 N.pl3     1 <0>        -0.5464
     16 H1         -0.1811    2.3111    7.3460 H         1 <0>         0.4116
     17 C11        -0.2467    0.9151    5.8103 C.2       1 <0>         0.1342
     18 C12         2.6475    2.5253    7.3215 C.2       1 <0>         0.6140
     19 O3          3.8370    2.4134    7.0899 O.2       1 <0>        -0.5259
     20 N3          2.2250    3.3675    8.2851 N.am      1 <0>        -0.6279
     21 C13         0.8247    3.5941    8.6715 C.3       1 <0>         0.0855
     22 C14         0.8246    4.6542    9.7929 C.3       1 <0>        -0.1283
     23 C15         2.1801    5.3800    9.5851 C.3       1 <0>        -0.1335
     24 C16         3.0908    4.2094    9.1307 C.3       1 <0>         0.1074
     25 C17        -0.2279    0.0381   -2.4760 C.2       1 <0>         0.5331
     26 O4         -1.1655   -0.1947   -3.2259 O.co2     1 <0>        -0.7078
     27 O5          0.6031    0.8822   -2.7799 O.co2     1 <0>        -0.6950
     28 H2          1.1645    1.8235   -0.1698 H         1 <0>         0.0443
     29 H3         -0.4975    1.8895   -0.8036 H         1 <0>         0.0396
     30 H4         -0.2150    1.8787    0.9537 H         1 <0>         0.0553
     31 H5         -0.2894   -2.6370   -2.1199 H         1 <0>         0.0961
     32 H6         -0.0753   -3.8619    0.0003 H         1 <0>         0.0908
     33 H7          0.2328   -2.6385    2.1102 H         1 <0>         0.0873
     34 H8          2.9434    0.5938    5.1725 H         1 <0>         0.1585
     35 H9         -1.3034    0.7262    5.6921 H         1 <0>         0.1868
     36 H10         0.2584    3.9603    7.8151 H         1 <0>         0.0709
     37 H11         0.3866    2.6660    9.0387 H         1 <0>         0.0690
     38 H12        -0.0072    5.3475    9.6682 H         1 <0>         0.0848
     39 H13         0.7880    4.1788   10.7731 H         1 <0>         0.0786
     40 H14         2.1006    6.1415    8.8093 H         1 <0>         0.0783
     41 H15         2.5391    5.8122   10.5192 H         1 <0>         0.0846
     42 H16         3.4444    3.6440    9.9930 H         1 <0>         0.0674
     43 H17         3.9338    4.5875    8.5524 H         1 <0>         0.0813
@<TRIPOS>BOND
     1    1    2 1
     2    1   28 1
     3    1   29 1
     4    1   30 1
     5    2    7 ar
     6    2    3 ar
     7    3    4 ar
     8    3   25 1
     9    4    5 ar
    10    4   31 1
    11    5    6 ar
    12    5   32 1
    13    6    7 ar
    14    6   33 1
    15    7    8 1
    16    8    9 1
    17    9   10 2
    18    9   11 2
    19    9   12 1
    20   12   17 2
    21   12   13 1
    22   13   14 2
    23   13   34 1
    24   14   15 1
    25   14   18 1
    26   15   16 1
    27   15   17 1
    28   17   35 1
    29   18   19 2
    30   18   20 am
    31   20   24 1
    32   20   21 1
    33   21   22 1
    34   21   36 1
    35   21   37 1
    36   22   23 1
    37   22   38 1
    38   22   39 1
    39   23   24 1
    40   23   40 1
    41   23   41 1
    42   24   42 1
    43   24   43 1
    44   25   26 2
    45   25   27 1
@<TRIPOS>MOLECULE
ZINC32826289
   38    39     0     0     0
SMALL
USER_CHARGES
N1-[(3,5-difluorophenyl)methyl]piperidine-1,4-dicarboxamide
@<TRIPOS>ATOM
      1 C1          1.0810    9.2705    2.1959 C.ar      1 <0>        -0.1451
      2 C2         -0.1101    8.7142    1.7695 C.ar      1 <0>        -0.0493
      3 C3         -1.3130    9.2281    2.2158 C.ar      1 <0>        -0.1454
      4 C4         -1.3259   10.3014    3.0906 C.ar      1 <0>         0.1321
      5 C5         -0.1336   10.8594    3.5184 C.ar      1 <0>        -0.1848
      6 C6          1.0704   10.3469    3.0670 C.ar      1 <0>         0.1326
      7 F1          2.2348   10.8940    3.4794 F         1 <0>        -0.1270
      8 F2         -2.5019   10.8042    3.5260 F         1 <0>        -0.1273
      9 C7         -0.0974    7.5467    0.8166 C.3       1 <0>         0.1805
     10 N1         -0.1173    8.0414   -0.5622 N.am      1 <0>        -0.7554
     11 C8         -0.1104    7.1706   -1.5907 C.2       1 <0>         0.7118
     12 O1          0.0038    5.9790   -1.3777 O.2       1 <0>        -0.5889
     13 N2         -0.2300    7.6205   -2.8555 N.am      1 <0>        -0.6291
     14 C9         -0.3328    6.6788   -3.9786 C.3       1 <0>         0.1280
     15 C10         0.7367    7.0208   -5.0143 C.3       1 <0>        -0.1254
     16 C11         0.6049    8.4924   -5.4135 C.3       1 <0>        -0.1071
     17 C12         0.8204    9.3775   -4.1838 C.3       1 <0>        -0.1166
     18 C13        -0.2538    9.0622   -3.1381 C.3       1 <0>         0.1126
     19 C14         1.6394    8.8238   -6.4581 C.2       1 <0>         0.5206
     20 O2          2.4672    9.6830   -6.2405 O.2       1 <0>        -0.5499
     21 N3          1.6446    8.1653   -7.6340 N.am      1 <0>        -0.8785
     22 H1          2.0204    8.8681    1.8465 H         1 <0>         0.1464
     23 H2         -2.2432    8.7926    1.8819 H         1 <0>         0.1463
     24 H3         -0.1428   11.6968    4.2004 H         1 <0>         0.1514
     25 H4          0.8127    6.9506    0.9792 H         1 <0>         0.0832
     26 H5         -0.9833    6.9191    0.9938 H         1 <0>         0.0822
     27 H6         -0.1379    9.1236   -0.7580 H         1 <0>         0.4160
     28 H7         -0.1796    5.6530   -3.6122 H         1 <0>         0.1005
     29 H8         -1.3304    6.7599   -4.4350 H         1 <0>         0.0696
     30 H9          1.7335    6.8446   -4.5839 H         1 <0>         0.0746
     31 H10         0.6034    6.3857   -5.9025 H         1 <0>         0.0818
     32 H11        -0.3939    8.6768   -5.8358 H         1 <0>         0.1002
     33 H12         1.8160    9.1800   -3.7599 H         1 <0>         0.0768
     34 H13         0.7498   10.4355   -4.4766 H         1 <0>         0.0858
     35 H14        -1.2445    9.3438   -3.5245 H         1 <0>         0.0744
     36 H15        -0.0489    9.6207   -2.2128 H         1 <0>         0.0805
     37 H16         2.3997    8.4072   -8.3965 H         1 <0>         0.4224
     38 H17         0.8938    7.3860   -7.8313 H         1 <0>         0.4194
@<TRIPOS>BOND
     1    1    6 ar
     2    1    2 ar
     3    1   22 1
     4    2    3 ar
     5    2    9 1
     6    3    4 ar
     7    3   23 1
     8    4    5 ar
     9    4    8 1
    10    5    6 ar
    11    5   24 1
    12    6    7 1
    13    9   10 1
    14    9   25 1
    15    9   26 1
    16   10   11 am
    17   10   27 1
    18   11   12 2
    19   11   13 am
    20   13   18 1
    21   13   14 1
    22   14   15 1
    23   14   28 1
    24   14   29 1
    25   15   16 1
    26   15   30 1
    27   15   31 1
    28   16   17 1
    29   16   19 1
    30   16   32 1
    31   17   18 1
    32   17   33 1
    33   17   34 1
    34   18   35 1
    35   18   36 1
    36   19   20 2
    37   19   21 am
    38   21   37 1
    39   21   38 1
@<TRIPOS>MOLECULE
ZINC40305970
   36    38     0     0     0
SMALL
USER_CHARGES

@<TRIPOS>ATOM
      1 C1         -0.0168    1.3911    0.0097 C.ar      1 <0>        -0.1481
      2 C2          1.1746    2.0857    0.0020 C.ar      1 <0>        -0.0364
      3 C3          2.3685    1.3968   -0.0131 C.ar      1 <0>        -0.1458
      4 C4          2.4278   -0.0168   -0.0212 C.ar      1 <0>        -0.0549
      5 C5          1.1854   -0.7019   -0.0130 C.ar      1 <0>        -0.1531
      6 C6          0.0021   -0.0041    0.0020 C.ar      1 <0>         0.2124
      7 N1         -1.2084   -0.7065    0.0098 N.pl3     1 <0>        -0.8786
      8 C7          3.7227   -0.5660   -0.0370 C.2       1 <0>        -0.0611
      9 C8          4.8073    0.2539   -0.0433 C.2       1 <0>        -0.1888
     10 S1          4.0766    1.8816   -0.0273 S.3       1 <0>         0.0553
     11 C9          6.2312   -0.1109   -0.0593 C.2       1 <0>         0.6043
     12 O1          6.5590   -1.2824   -0.0688 O.2       1 <0>        -0.5216
     13 N2          7.1737    0.8526   -0.0635 N.am      1 <0>        -0.7163
     14 C10         8.5928    0.4891   -0.0795 C.3       1 <0>         0.1306
     15 C11         9.4448    1.7599   -0.0811 C.3       1 <0>         0.0406
     16 H1          9.1499    2.3951   -0.9163 H         1 <0>         0.0787
     17 C12        10.9230    1.3848   -0.2202 C.3       1 <0>         0.0335
     18 O2         11.7199    2.5679   -0.1088 O.3       1 <0>        -0.3747
     19 C13        11.5285    3.2735    1.1211 C.3       1 <0>         0.0209
     20 C14        10.0502    3.6485    1.2602 C.3       1 <0>         0.0246
     21 O3          9.2521    2.4663    1.1481 O.3       1 <0>        -0.3727
     22 H2         -0.9568    1.9226    0.0260 H         1 <0>         0.1364
     23 H3          1.1722    3.1657    0.0075 H         1 <0>         0.1356
     24 H4          1.1698   -1.7818   -0.0191 H         1 <0>         0.1275
     25 H5         -2.0494   -0.2233    0.0204 H         1 <0>         0.4007
     26 H6         -1.2063   -1.6765    0.0046 H         1 <0>         0.4003
     27 H7          3.8553   -1.6378   -0.0436 H         1 <0>         0.1460
     28 H8          6.9123    1.7867   -0.0559 H         1 <0>         0.4058
     29 H9          8.8260   -0.1036    0.8051 H         1 <0>         0.0842
     30 H10         8.8084   -0.0941   -0.9748 H         1 <0>         0.0923
     31 H11        11.1972    0.6852    0.5693 H         1 <0>         0.0679
     32 H12        11.0915    0.9224   -1.1928 H         1 <0>         0.1107
     33 H13        11.8230    2.6373    1.9557 H         1 <0>         0.0638
     34 H14        12.1355    4.1788    1.1199 H         1 <0>         0.1079
     35 H15         9.8817    4.1110    2.2328 H         1 <0>         0.1089
     36 H16         9.7760    4.3482    0.4707 H         1 <0>         0.0634
@<TRIPOS>BOND
     1    1    6 ar
     2    1    2 ar
     3    1   22 1
     4    2    3 ar
     5    2   23 1
     6    3   10 1
     7    3    4 ar
     8    4    5 ar
     9    4    8 1
    10    5    6 ar
    11    5   24 1
    12    6    7 1
    13    7   25 1
    14    7   26 1
    15    8    9 2
    16    8   27 1
    17    9   10 1
    18    9   11 1
    19   11   12 2
    20   11   13 am
    21   13   14 1
    22   13   28 1
    23   14   15 1
    24   14   29 1
    25   14   30 1
    26   15   16 1
    27   15   21 1
    28   15   17 1
    29   17   18 1
    30   17   31 1
    31   17   32 1
    32   18   19 1
    33   19   20 1
    34   19   33 1
    35   19   34 1
    36   20   21 1
    37   20   35 1
    38   20   36 1
@<TRIPOS>MOLECULE
ZINC43399734
   45    47     0     0     0
SMALL
USER_CHARGES

@<TRIPOS>ATOM
      1 C1          2.3674   -0.4994   -1.4598 C.3       1 <0>        -0.1088
      2 C2          1.1496   -0.9499   -0.6949 C.ar      1 <0>         0.1585
      3 C3         -0.1075   -0.7144   -1.2199 C.ar      1 <0>        -0.1807
      4 C4         -1.2275   -1.1279   -0.5181 C.ar      1 <0>        -0.0441
      5 C5         -1.0425   -1.7741    0.7069 C.ar      1 <0>        -0.1165
      6 C6          0.2653   -1.9770    1.1742 C.ar      1 <0>         0.4324
      7 N1          1.3022   -1.5667    0.4612 N.ar      1 <0>        -0.4939
      8 N2          0.4723   -2.6156    2.3864 N.pl3     1 <0>        -0.6413
      9 C7          0.7288   -4.0615    2.4375 C.3       1 <0>         0.1614
     10 C8          2.0244   -4.3033    3.2179 C.3       1 <0>        -0.1329
     11 C9          1.9217   -3.6365    4.5922 C.3       1 <0>        -0.0725
     12 H1          1.0696   -4.0478    5.1334 H         1 <0>         0.0682
     13 C10         3.2057   -3.9067    5.3799 C.3       1 <0>        -0.1146
     14 C11         3.1143   -3.2394    6.7533 C.3       1 <0>        -0.1192
     15 C12         2.9366   -1.7301    6.5742 C.3       1 <0>        -0.1179
     16 C13         1.6509   -1.4595    5.7908 C.3       1 <0>        -0.1127
     17 C14         1.7353   -2.1277    4.4166 C.3       1 <0>        -0.0969
     18 H2          2.5811   -1.7176    3.8647 H         1 <0>         0.0714
     19 C15         0.4458   -1.8597    3.6456 C.3       1 <0>         0.1665
     20 C16        -2.2036   -2.2354    1.4969 C.2       1 <0>         0.4087
     21 N3         -2.0179   -2.9296    2.5823 N.2       1 <0>        -0.3746
     22 O1         -3.1286   -3.4624    3.2807 O.3       1 <0>        -0.4329
     23 N4         -3.4889   -1.9290    1.0823 N.pl3     1 <0>        -0.8731
     24 H3          2.6901   -1.2955   -2.1308 H         1 <0>         0.0820
     25 H4          2.1228    0.3893   -2.0417 H         1 <0>         0.0780
     26 H5          3.1701   -0.2661   -0.7603 H         1 <0>         0.0795
     27 H6         -0.2153   -0.2117   -2.1697 H         1 <0>         0.1424
     28 H7         -2.2197   -0.9547   -0.9079 H         1 <0>         0.1368
     29 H8         -0.0991   -4.5622    2.9395 H         1 <0>         0.0606
     30 H9          0.8341   -4.4502    1.4247 H         1 <0>         0.0575
     31 H10         2.1782   -5.3750    3.3442 H         1 <0>         0.0655
     32 H11         2.8643   -3.8774    2.6690 H         1 <0>         0.0649
     33 H12         3.3346   -4.9816    5.5064 H         1 <0>         0.0597
     34 H13         4.0580   -3.5008    4.8350 H         1 <0>         0.0599
     35 H14         2.2611   -3.6438    7.2980 H         1 <0>         0.0604
     36 H15         4.0289   -3.4338    7.3135 H         1 <0>         0.0592
     37 H16         2.8738   -1.2528    7.5521 H         1 <0>         0.0600
     38 H17         3.7879   -1.3263    6.0262 H         1 <0>         0.0603
     39 H18         0.8000   -1.8650    6.3384 H         1 <0>         0.0617
     40 H19         1.5221   -0.3846    5.6646 H         1 <0>         0.0594
     41 H20         0.3648   -0.7942    3.4303 H         1 <0>         0.0552
     42 H21        -0.4068   -2.1787    4.2452 H         1 <0>         0.0612
     43 H22        -2.8915   -3.9625    4.0737 H         1 <0>         0.3989
     44 H23        -3.6273   -1.4117    0.2736 H         1 <0>         0.3932
     45 H24        -4.2509   -2.2318    1.6007 H         1 <0>         0.4092
@<TRIPOS>BOND
     1    1    2 1
     2    1   24 1
     3    1   25 1
     4    1   26 1
     5    2    7 ar
     6    2    3 ar
     7    3    4 ar
     8    3   27 1
     9    4    5 ar
    10    4   28 1
    11    5    6 ar
    12    5   20 1
    13    6    7 ar
    14    6    8 1
    15    8   19 1
    16    8    9 1
    17    9   10 1
    18    9   29 1
    19    9   30 1
    20   10   11 1
    21   10   31 1
    22   10   32 1
    23   11   12 1
    24   11   17 1
    25   11   13 1
    26   13   14 1
    27   13   33 1
    28   13   34 1
    29   14   15 1
    30   14   35 1
    31   14   36 1
    32   15   16 1
    33   15   37 1
    34   15   38 1
    35   16   17 1
    36   16   39 1
    37   16   40 1
    38   17   18 1
    39   17   19 1
    40   19   41 1
    41   19   42 1
    42   20   21 2
    43   20   23 1
    44   21   22 1
    45   22   43 1
    46   23   44 1
    47   23   45 1
@<TRIPOS>MOLECULE
ZINC01160865
   29    30     0     0     0
SMALL
USER_CHARGES

@<TRIPOS>ATOM
      1 C1         -0.0184    1.5028    0.0103 C.3       1 <0>        -0.0763
      2 C2          0.0021   -0.0041    0.0020 C.2       1 <0>         0.1174
      3 C3          0.0079   -0.8174   -1.1386 C.2       1 <0>        -0.3003
      4 C4          0.0278   -2.1029   -0.7237 C.2       1 <0>         0.3719
      5 N1          0.0324   -2.1043    0.6349 N.pl3     1 <0>        -0.4233
      6 N2          0.0231   -0.7769    1.0613 N.2       1 <0>        -0.2873
      7 C5          0.0486   -3.3230    1.4484 C.3       1 <0>         0.3591
      8 C6         -0.4207   -4.5012    0.5873 C.3       1 <0>        -0.1258
      9 C7          0.3517   -4.5193   -0.7366 C.3       1 <0>         0.3277
     10 N3          0.0431   -3.2796   -1.4763 N.pl3     1 <0>        -0.7339
     11 C8         -0.0765   -5.7324   -1.5649 C.3       1 <0>         0.4351
     12 F1         -1.4483   -5.6563   -1.8286 F         1 <0>        -0.1656
     13 F2          0.6304   -5.7457   -2.7721 F         1 <0>        -0.1704
     14 F3          0.1970   -6.9043   -0.8514 F         1 <0>        -0.1575
     15 O1          1.7547   -4.5843   -0.4729 O.3       1 <0>        -0.5105
     16 C9         -0.8927   -3.1543    2.6427 C.3       1 <0>         0.4345
     17 F4         -2.1927   -2.9195    2.1824 F         1 <0>        -0.1674
     18 F5         -0.8756   -4.3188    3.4179 F         1 <0>        -0.1630
     19 F6         -0.4703   -2.0705    3.4199 F         1 <0>        -0.1562
     20 O2          1.3768   -3.5698    1.9141 O.3       1 <0>        -0.5028
     21 H1          1.0042    1.8801    0.0026 H         1 <0>         0.0822
     22 H2         -0.5455    1.8639   -0.8728 H         1 <0>         0.0824
     23 H3         -0.5286    1.8543    0.9071 H         1 <0>         0.0768
     24 H4         -0.0020   -0.4781   -2.1639 H         1 <0>         0.1569
     25 H5         -0.2438   -5.4340    1.1226 H         1 <0>         0.1421
     26 H6         -1.4865   -4.3987    0.3833 H         1 <0>         0.1334
     27 H7         -0.1390   -3.2821   -2.4290 H         1 <0>         0.4293
     28 H8          2.3041   -4.5990   -1.2686 H         1 <0>         0.3928
     29 H9          1.7409   -2.8589    2.4593 H         1 <0>         0.3985
@<TRIPOS>BOND
     1    1    2 1
     2    1   21 1
     3    1   22 1
     4    1   23 1
     5    2    6 2
     6    2    3 1
     7    3    4 2
     8    3   24 1
     9    4   10 1
    10    4    5 1
    11    5    6 1
    12    5    7 1
    13    7    8 1
    14    7   16 1
    15    7   20 1
    16    8    9 1
    17    8   25 1
    18    8   26 1
    19    9   10 1
    20    9   11 1
    21    9   15 1
    22   10   27 1
    23   11   12 1
    24   11   13 1
    25   11   14 1
    26   15   28 1
    27   16   17 1
    28   16   18 1
    29   16   19 1
    30   20   29 1
@<TRIPOS>MOLECULE
ZINC58377809
   44    47     0     0     0
SMALL
USER_CHARGES

@<TRIPOS>ATOM
      1 C1         -0.6716    1.4249   -1.0416 C.2       1 <0>        -0.2807
      2 C2         -1.1919    2.0545    0.0357 C.2       1 <0>         0.1328
      3 N1         -1.7167    1.3485    1.0660 N.pl3     1 <0>        -0.5823
      4 C3         -1.7403   -0.0093    1.0563 C.2       1 <0>         0.1144
      5 C4         -1.2343   -0.7008    0.0051 C.2       1 <0>        -0.0172
      6 C5         -0.6785    0.0130   -1.0884 C.2       1 <0>         0.3918
      7 O1         -0.2194   -0.5817   -2.0531 O.2       1 <0>        -0.5034
      8 N2         -1.2596   -2.1041   -0.0010 N.am      1 <0>        -0.6666
      9 C6         -0.1097   -2.7983   -0.1120 C.2       1 <0>         0.5220
     10 O2          0.9535   -2.2143   -0.1153 O.2       1 <0>        -0.5017
     11 C7         -0.1447   -4.3001   -0.2320 C.3       1 <0>        -0.1299
     12 C8          1.2839   -4.8363   -0.3434 C.3       1 <0>        -0.0303
     13 C9          1.9568   -4.2413   -1.5820 C.3       1 <0>        -0.1163
     14 C10         3.3854   -4.7775   -1.6934 C.3       1 <0>        -0.0811
     15 H1          3.8649   -4.3536   -2.5758 H         1 <0>         0.0712
     16 C11         4.1767   -4.3841   -0.4444 C.3       1 <0>        -0.1082
     17 C12         3.5038   -4.9791    0.7941 C.3       1 <0>        -0.0805
     18 H2          4.0675   -4.6988    1.6839 H         1 <0>         0.0703
     19 C13         2.0752   -4.4429    0.9055 C.3       1 <0>        -0.1155
     20 C14         3.4682   -6.5038    0.6723 C.3       1 <0>        -0.1371
     21 C15         2.6769   -6.8973   -0.5767 C.3       1 <0>         0.1377
     22 C16         3.3498   -6.3023   -1.8153 C.3       1 <0>        -0.1377
     23 C17         1.2483   -6.3611   -0.4653 C.3       1 <0>        -0.0919
     24 O3          2.6437   -8.3214   -0.6905 O.3       1 <0>        -0.5630
     25 H3         -0.2590    1.9957   -1.8603 H         1 <0>         0.1501
     26 H4         -1.1887    3.1337    0.0757 H         1 <0>         0.1679
     27 H5         -2.1654   -0.5432    1.8933 H         1 <0>         0.1649
     28 H6         -2.0836    1.8236    1.8279 H         1 <0>         0.4241
     29 H7         -2.1046   -2.5743    0.0745 H         1 <0>         0.4049
     30 H8         -0.6241   -4.7240    0.6503 H         1 <0>         0.0945
     31 H9         -0.7085   -4.5804   -1.1218 H         1 <0>         0.0971
     32 H10         1.3931   -4.5216   -2.4718 H         1 <0>         0.0551
     33 H11         1.9822   -3.1551   -1.4952 H         1 <0>         0.0979
     34 H12         5.1945   -4.7661   -0.5238 H         1 <0>         0.0580
     35 H13         4.2021   -3.2978   -0.3576 H         1 <0>         0.0677
     36 H14         2.1005   -3.3566    0.9923 H         1 <0>         0.0936
     37 H15         1.5958   -4.8668    1.7879 H         1 <0>         0.0540
     38 H16         4.4860   -6.8858    0.5929 H         1 <0>         0.0622
     39 H17         2.9888   -6.9277    1.5546 H         1 <0>         0.0678
     40 H18         2.7861   -6.5826   -2.7051 H         1 <0>         0.0685
     41 H19         4.3676   -6.6843   -1.8946 H         1 <0>         0.0619
     42 H20         0.7689   -6.7850    0.4171 H         1 <0>         0.0683
     43 H21         0.6846   -6.6414   -1.3551 H         1 <0>         0.0692
     44 H22         3.5167   -8.7305   -0.7652 H         1 <0>         0.3753
@<TRIPOS>BOND
     1    1    6 1
     2    1   25 1
     3    1    2 2
     4    2   26 1
     5    2    3 1
     6    3   28 1
     7    3    4 1
     8    4   27 1
     9    4    5 2
    10    5    6 1
    11    5    8 1
    12    6    7 2
    13    8    9 am
    14    8   29 1
    15    9   10 2
    16    9   11 1
    17   11   12 1
    18   11   30 1
    19   11   31 1
    20   12   19 1
    21   12   23 1
    22   12   13 1
    23   13   14 1
    24   13   32 1
    25   13   33 1
    26   14   15 1
    27   14   22 1
    28   14   16 1
    29   16   17 1
    30   16   34 1
    31   16   35 1
    32   17   18 1
    33   17   19 1
    34   17   20 1
    35   19   36 1
    36   19   37 1
    37   20   21 1
    38   20   38 1
    39   20   39 1
    40   21   22 1
    41   21   23 1
    42   21   24 1
    43   22   40 1
    44   22   41 1
    45   23   42 1
    46   23   43 1
    47   24   44 1
@<TRIPOS>MOLECULE
ZINC12210454
   56    60     0     0     0
SMALL
USER_CHARGES
(R)-(2-chloro-6-fluoro-phenyl)-[4-[(1-pyrimidin-2-ylpyrrol-2-yl)methyl]-3,5-dihydro-2H-1,4-benzoxazepin-7-yl]methanol
@<TRIPOS>ATOM
      1 C1          1.4053    0.6907    1.5979 C.ar      1 <0>        -0.0699
      2 C2          0.8619   -0.0921    0.5966 C.ar      1 <0>        -0.1394
      3 C3          0.6482    0.4438   -0.6620 C.ar      1 <0>         0.1216
      4 C4          0.9791    1.7639   -0.9168 C.ar      1 <0>        -0.1481
      5 C5          1.5276    2.5441    0.0847 C.ar      1 <0>        -0.0021
      6 C6          1.7357    2.0083    1.3436 C.ar      1 <0>        -0.1128
      7 Cl1         1.9495    4.1973   -0.2357 Cl        1 <0>        -0.0486
      8 C7          0.7476    2.3483   -2.2864 C.3       1 <0>         0.1866
      9 H1          0.7515    3.4364   -2.2225 H         1 <0>         0.1325
     10 C8          1.8428    1.8958   -3.2174 C.ar      1 <0>        -0.1127
     11 C9          1.7352    0.6819   -3.8709 C.ar      1 <0>        -0.0653
     12 C10         2.7376    0.2604   -4.7239 C.ar      1 <0>        -0.1122
     13 C11         3.8580    1.0567   -4.9127 C.ar      1 <0>         0.1119
     14 C12         3.9563    2.2740   -4.2665 C.ar      1 <0>        -0.1825
     15 C13         2.9568    2.6933   -3.4122 C.ar      1 <0>        -0.0542
     16 C14         5.1598    3.1596   -4.5219 C.3       1 <0>         0.0571
     17 C15         6.9465    1.5352   -4.8341 C.3       1 <0>        -0.0436
     18 C16         6.0924    0.3023   -5.0355 C.3       1 <0>         0.0445
     19 O1          4.8742    0.6320   -5.7135 O.3       1 <0>        -0.3115
     20 C17         7.3354    3.5286   -3.5285 C.3       1 <0>         0.0730
     21 C18         7.5656    4.4989   -4.6583 C.2       1 <0>        -0.0467
     22 C19         6.9258    5.6717   -4.8356 C.2       1 <0>        -0.1178
     23 C20         7.4407    6.2628   -6.0078 C.2       1 <0>        -0.1835
     24 C21         8.3765    5.4298   -6.5045 C.2       1 <0>         0.0597
     25 N1          8.4638    4.3445   -5.6775 N.pl3     1 <0>        -0.3792
     26 C22         9.3230    3.2601   -5.8469 C.ar      1 <0>         0.5246
     27 N2          9.4020    2.3442   -4.8949 N.ar      1 <0>        -0.5614
     28 C23        10.2030    1.2997   -5.0258 C.ar      1 <0>         0.1704
     29 C24        10.9728    1.1780   -6.1721 C.ar      1 <0>        -0.2278
     30 C25        10.8691    2.1587   -7.1463 C.ar      1 <0>         0.1966
     31 N3         10.0439    3.1744   -6.9534 N.ar      1 <0>        -0.5200
     32 O2         -0.5157    1.9050   -2.7861 O.3       1 <0>        -0.5390
     33 F1          0.1175   -0.3211   -1.6410 F         1 <0>        -0.1288
     34 H2          1.5722    0.2722    2.5794 H         1 <0>         0.1506
     35 H3          0.6036   -1.1216    0.7961 H         1 <0>         0.1495
     36 H4          2.1602    2.6191    2.1266 H         1 <0>         0.1476
     37 H5          0.8632    0.0634   -3.7178 H         1 <0>         0.1422
     38 H6          2.6516   -0.6860   -5.2370 H         1 <0>         0.1482
     39 H7          3.0438    3.6391   -2.8980 H         1 <0>         0.1416
     40 H8          5.3007    3.2840   -5.5955 H         1 <0>         0.1383
     41 H9          5.0025    4.1328   -4.0568 H         1 <0>         0.1388
     42 H10         7.9080    1.2297   -4.4213 H         1 <0>         0.1566
     43 H11         7.1172    2.0033   -5.8036 H         1 <0>         0.1189
     44 H12         5.8559   -0.1327   -4.0644 H         1 <0>         0.0846
     45 H13         6.6473   -0.4248   -5.6284 H         1 <0>         0.1402
     46 H14         6.9638    4.0673   -2.6569 H         1 <0>         0.1447
     47 H15         8.2738    3.0342   -3.2773 H         1 <0>         0.1573
     48 H16         6.1588    6.0836   -4.1966 H         1 <0>         0.1586
     49 H17         7.1400    7.2101   -6.4304 H         1 <0>         0.1621
     50 H18         8.9594    5.5932   -7.3989 H         1 <0>         0.1860
     51 H19        10.2601    0.5535   -4.2472 H         1 <0>         0.1881
     52 H20        11.6389    0.3380   -6.3032 H         1 <0>         0.1666
     53 H21        11.4550    2.0945   -8.0512 H         1 <0>         0.1889
     54 H22        -0.5586    0.9547   -2.9595 H         1 <0>         0.3791
     55 N4          6.3400    2.5109   -3.9031 N.4       1 <0>        -0.3870
     56 H23         6.0372    2.0150   -3.0565 H         1 <0>         0.4272
@<TRIPOS>BOND
     1    1    6 ar
     2    1    2 ar
     3    1   34 1
     4    2    3 ar
     5    2   35 1
     6    3    4 ar
     7    3   33 1
     8    4    5 ar
     9    4    8 1
    10    5    6 ar
    11    5    7 1
    12    6   36 1
    13    8    9 1
    14    8   10 1
    15    8   32 1
    16   10   15 ar
    17   10   11 ar
    18   11   12 ar
    19   11   37 1
    20   12   13 ar
    21   12   38 1
    22   13   19 1
    23   13   14 ar
    24   14   15 ar
    25   14   16 1
    26   15   39 1
    27   16   40 1
    28   16   41 1
    29   16   55 1
    30   17   18 1
    31   17   42 1
    32   17   43 1
    33   17   55 1
    34   18   19 1
    35   18   44 1
    36   18   45 1
    37   20   21 1
    38   20   46 1
    39   20   47 1
    40   20   55 1
    41   21   25 1
    42   21   22 2
    43   22   23 1
    44   22   48 1
    45   23   24 2
    46   23   49 1
    47   24   25 1
    48   24   50 1
    49   25   26 1
    50   26   31 ar
    51   26   27 ar
    52   27   28 ar
    53   28   29 ar
    54   28   51 1
    55   29   30 ar
    56   29   52 1
    57   30   31 ar
    58   30   53 1
    59   32   54 1
    60   55   56 1
@<TRIPOS>MOLECULE
ZINC32983841
   62    66     0     0     0
SMALL
USER_CHARGES
(2Z)-2-[(2-chlorophenyl)methylene]-6-(4-cyclohexylpiperazine-1-carbonyl)-4H-1,4-benzoxazin-3-one
@<TRIPOS>ATOM
      1 C1         -2.6443    2.8489    2.9615 C.ar      1 <0>        -0.1200
      2 C2         -2.9445    3.3999    4.1956 C.ar      1 <0>        -0.0865
      3 C3         -2.4864    4.6622    4.5280 C.ar      1 <0>        -0.1137
      4 C4         -1.7251    5.3826    3.6296 C.ar      1 <0>        -0.0126
      5 C5         -1.4172    4.8319    2.3803 C.ar      1 <0>        -0.0742
      6 C6         -1.8889    3.5569    2.0512 C.ar      1 <0>        -0.0752
      7 C7         -0.6070    5.5923    1.4162 C.2       1 <0>        -0.0217
      8 C8         -0.0156    4.9564    0.3803 C.2       1 <0>        -0.0264
      9 C9          0.6724    5.7067   -0.6911 C.2       1 <0>         0.5506
     10 O1          0.3694    6.8558   -0.9522 O.2       1 <0>        -0.4806
     11 N1          1.6501    5.0646   -1.3749 N.am      1 <0>        -0.6747
     12 C10         1.9712    3.7479   -1.0175 C.ar      1 <0>         0.1132
     13 C11         3.1339    3.1678   -1.4917 C.ar      1 <0>        -0.1125
     14 C12         3.4521    1.8557   -1.1327 C.ar      1 <0>        -0.1324
     15 C13         2.5951    1.1343   -0.2974 C.ar      1 <0>        -0.0533
     16 C14         1.4379    1.7166    0.1724 C.ar      1 <0>        -0.0994
     17 C15         1.1199    3.0201   -0.1830 C.ar      1 <0>         0.0995
     18 O2         -0.0245    3.5920    0.2811 O.3       1 <0>        -0.2219
     19 C16         4.6916    1.2318   -1.6360 C.2       1 <0>         0.5771
     20 O3          4.6603    0.1115   -2.1075 O.2       1 <0>        -0.4969
     21 N2          5.8581    1.9040   -1.5729 N.am      1 <0>        -0.6284
     22 C17         5.8986    3.3055   -1.1286 C.3       1 <0>         0.0679
     23 C18         6.9587    3.4301   -0.0228 C.3       1 <0>        -0.0289
     24 N3          8.2365    2.8977   -0.5144 N.4       1 <0>        -0.3981
     25 C19         8.1346    1.4644   -0.8195 C.3       1 <0>        -0.0189
     26 C20         7.1235    1.2573   -1.9522 C.3       1 <0>         0.0881
     27 C21         9.3185    3.1561    0.4451 C.3       1 <0>         0.0340
     28 C22         9.0406    2.3966    1.7439 C.3       1 <0>        -0.1405
     29 C23        10.1675    2.6657    2.7432 C.3       1 <0>        -0.1190
     30 C24        10.2425    4.1656    3.0355 C.3       1 <0>        -0.1321
     31 C25        10.5205    4.9251    1.7367 C.3       1 <0>        -0.1186
     32 C26         9.3936    4.6560    0.7375 C.3       1 <0>        -0.1412
     33 Cl1        -1.1519    6.9670    4.0478 Cl        1 <0>        -0.0567
     34 H1         -3.0061    1.8630    2.7097 H         1 <0>         0.1358
     35 H2         -3.5399    2.8413    4.9026 H         1 <0>         0.1383
     36 H3         -2.7252    5.0852    5.4926 H         1 <0>         0.1407
     37 H4         -1.6593    3.1268    1.0875 H         1 <0>         0.1488
     38 H5         -0.4824    6.6784    1.5383 H         1 <0>         0.1678
     39 H6          2.1759    5.5770   -2.1940 H         1 <0>         0.4481
     40 H7          3.7941    3.7277   -2.1374 H         1 <0>         0.1425
     41 H8          2.8400    0.1198   -0.0195 H         1 <0>         0.1473
     42 H9          0.7770    1.1576    0.8182 H         1 <0>         0.1546
     43 H10         6.1621    3.9521   -1.9786 H         1 <0>         0.1007
     44 H11         4.9114    3.5955   -0.7395 H         1 <0>         0.1414
     45 H12         7.0810    4.4886    0.2502 H         1 <0>         0.1468
     46 H13         6.6365    2.8586    0.8601 H         1 <0>         0.1334
     47 H14         9.1189    1.0850   -1.1311 H         1 <0>         0.1454
     48 H15         7.7994    0.9217    0.0766 H         1 <0>         0.1328
     49 H16         6.9527    0.1823   -2.1108 H         1 <0>         0.1384
     50 H17         7.5024    1.7093   -2.8807 H         1 <0>         0.0982
     51 H18        10.2540    2.8051   -0.0149 H         1 <0>         0.1371
     52 H19         8.0845    2.7355    2.1694 H         1 <0>         0.0848
     53 H20         8.9867    1.3182    1.5337 H         1 <0>         0.0854
     54 H21         9.9676    2.1197    3.6770 H         1 <0>         0.0842
     55 H22        11.1236    2.3268    2.3177 H         1 <0>         0.0750
     56 H23         9.2864    4.5045    3.4610 H         1 <0>         0.0693
     57 H24        11.0526    4.3591    3.7540 H         1 <0>         0.0801
     58 H25        10.5745    6.0035    1.9469 H         1 <0>         0.0855
     59 H26        11.4766    4.5862    1.3112 H         1 <0>         0.0754
     60 H27         9.5934    5.2020   -0.1963 H         1 <0>         0.0882
     61 H28         8.4376    4.9950    1.1631 H         1 <0>         0.0876
     62 H29         8.4796    3.4223   -1.4502 H         1 <0>         0.4405
@<TRIPOS>BOND
     1    1    6 ar
     2    1    2 ar
     3    1   34 1
     4    2    3 ar
     5    2   35 1
     6    3    4 ar
     7    3   36 1
     8    4    5 ar
     9    4   33 1
    10    5    6 ar
    11    5    7 1
    12    6   37 1
    13    7    8 2
    14    7   38 1
    15    8   18 1
    16    8    9 1
    17    9   10 2
    18    9   11 am
    19   11   12 1
    20   11   39 1
    21   12   17 ar
    22   12   13 ar
    23   13   14 ar
    24   13   40 1
    25   14   15 ar
    26   14   19 1
    27   15   16 ar
    28   15   41 1
    29   16   17 ar
    30   16   42 1
    31   17   18 1
    32   19   20 2
    33   19   21 am
    34   21   26 1
    35   21   22 1
    36   22   23 1
    37   22   43 1
    38   22   44 1
    39   23   24 1
    40   23   45 1
    41   23   46 1
    42   24   25 1
    43   24   27 1
    44   24   62 1
    45   25   26 1
    46   25   47 1
    47   25   48 1
    48   26   49 1
    49   26   50 1
    50   27   32 1
    51   27   28 1
    52   27   51 1
    53   28   29 1
    54   28   52 1
    55   28   53 1
    56   29   30 1
    57   29   54 1
    58   29   55 1
    59   30   31 1
    60   30   56 1
    61   30   57 1
    62   31   32 1
    63   31   58 1
    64   31   59 1
    65   32   60 1
    66   32   61 1
@<TRIPOS>MOLECULE
ZINC38733420
   59    62     0     0     0
SMALL
USER_CHARGES

@<TRIPOS>ATOM
      1 C1         -1.7908    0.9054    3.0917 C.ar      1 <0>         0.0395
      2 C2         -0.7968    1.8522    2.8814 C.ar      1 <0>        -0.1698
      3 C3          0.4653    1.4361    2.5086 C.ar      1 <0>         0.1479
      4 N1          0.7362    0.1542    2.3506 N.ar      1 <0>        -0.5069
      5 C4         -0.1841   -0.7784    2.5411 C.ar      1 <0>         0.4443
      6 C5         -1.4773   -0.4304    2.9185 C.ar      1 <0>        -0.2006
      7 N2          0.1448   -2.1172    2.3631 N.pl3     1 <0>        -0.5894
      8 C6         -0.8202   -3.1749    2.6945 C.3       1 <0>         0.0945
      9 C7         -1.0219   -4.0593    1.4578 C.3       1 <0>         0.0857
     10 N3          0.2969   -4.4424    0.9343 N.am      1 <0>        -0.6188
     11 C8          1.2619   -3.3846    0.6029 C.3       1 <0>         0.0981
     12 C9          1.4615   -2.5000    1.8343 C.3       1 <0>         0.0852
     13 C10         0.6157   -5.7404    0.7616 C.2       1 <0>         0.5241
     14 O1          1.7349   -6.0484    0.4102 O.2       1 <0>        -0.5109
     15 C11        -0.4184   -6.8092    1.0051 C.3       1 <0>        -0.0959
     16 H1         -1.0265   -6.5406    1.8690 H         1 <0>         0.1075
     17 C12        -1.3121   -6.9509   -0.2289 C.3       1 <0>        -0.0749
     18 C13        -2.1680   -8.1778   -0.1092 C.2       1 <0>        -0.1423
     19 C14        -1.9341   -9.1475    0.7157 C.2       1 <0>        -0.1397
     20 C15        -0.7806   -9.1754    1.6753 C.3       1 <0>        -0.0754
     21 C16         0.2780   -8.1516    1.2621 C.3       1 <0>        -0.0885
     22 H2          1.0118   -8.0368    2.0598 H         1 <0>         0.0939
     23 C17         0.9616   -8.6169    0.0023 C.2       1 <0>         0.5242
     24 O2          0.3107   -9.1115   -0.8936 O.2       1 <0>        -0.5278
     25 N4          2.2963   -8.4835   -0.1289 N.am      1 <0>        -0.7069
     26 C18         2.9609   -8.9359   -1.3536 C.3       1 <0>         0.1654
     27 C19         4.4414   -8.6753   -1.2474 C.ar      1 <0>        -0.0811
     28 C20         4.9633   -7.4702   -1.6783 C.ar      1 <0>        -0.0827
     29 C21         6.3226   -7.2305   -1.5815 C.ar      1 <0>        -0.0260
     30 C22         7.1591   -8.1970   -1.0529 C.ar      1 <0>        -0.0955
     31 C23         6.6361   -9.4028   -0.6213 C.ar      1 <0>        -0.0250
     32 C24         5.2760   -9.6393   -0.7139 C.ar      1 <0>        -0.0882
     33 Cl1         7.6852  -10.6166    0.0417 Cl        1 <0>        -0.0471
     34 Cl2         6.9781   -5.7173   -2.1239 Cl        1 <0>        -0.0539
     35 H3         -2.7851    1.2052    3.3882 H         1 <0>         0.1753
     36 H4         -1.0093    2.9035    3.0080 H         1 <0>         0.1814
     37 H5          1.2411    2.1691    2.3437 H         1 <0>         0.2068
     38 H6         -2.2261   -1.1930    3.0737 H         1 <0>         0.1794
     39 H7         -0.4342   -3.7779    3.5164 H         1 <0>         0.1023
     40 H8         -1.7708   -2.7258    2.9820 H         1 <0>         0.1150
     41 H9         -1.5794   -4.9540    1.7348 H         1 <0>         0.1181
     42 H10        -1.5705   -3.5044    0.6967 H         1 <0>         0.0865
     43 H11         2.2125   -3.8337    0.3153 H         1 <0>         0.1221
     44 H12         0.8759   -2.7817   -0.2190 H         1 <0>         0.0791
     45 H13         2.0173   -1.6053    1.5539 H         1 <0>         0.0884
     46 H14         2.0137   -3.0538    2.5936 H         1 <0>         0.1056
     47 H15        -1.9508   -6.0719   -0.3154 H         1 <0>         0.0726
     48 H16        -0.6885   -7.0309   -1.1194 H         1 <0>         0.0854
     49 H17        -3.0327   -8.2567   -0.7514 H         1 <0>         0.1086
     50 H18        -2.6114   -9.9888    0.7135 H         1 <0>         0.1091
     51 H19        -1.1381   -8.9367    2.6769 H         1 <0>         0.0849
     52 H20        -0.3383  -10.1717    1.6797 H         1 <0>         0.0832
     53 H21         2.8169   -8.0879    0.5877 H         1 <0>         0.4038
     54 H22         2.7886  -10.0039   -1.4872 H         1 <0>         0.0820
     55 H23         2.5568   -8.3930   -2.2080 H         1 <0>         0.0791
     56 H24         4.3101   -6.7156   -2.0911 H         1 <0>         0.1399
     57 H25         8.2202   -8.0105   -0.9774 H         1 <0>         0.1470
     58 H26         4.8669  -10.5788   -0.3729 H         1 <0>         0.1432
     59 H27         1.6314   -0.1113    2.0880 H         1 <0>         0.4381
@<TRIPOS>BOND
     1    1    6 ar
     2    1    2 ar
     3    1   35 1
     4    2    3 ar
     5    2   36 1
     6    3    4 ar
     7    3   37 1
     8    4    5 ar
     9    4   59 1
    10    5    6 ar
    11    5    7 1
    12    6   38 1
    13    7   12 1
    14    7    8 1
    15    8    9 1
    16    8   39 1
    17    8   40 1
    18    9   10 1
    19    9   41 1
    20    9   42 1
    21   10   11 1
    22   10   13 am
    23   11   12 1
    24   11   43 1
    25   11   44 1
    26   12   45 1
    27   12   46 1
    28   13   14 2
    29   13   15 1
    30   15   16 1
    31   15   21 1
    32   15   17 1
    33   17   18 1
    34   17   47 1
    35   17   48 1
    36   18   19 2
    37   18   49 1
    38   19   20 1
    39   19   50 1
    40   20   21 1
    41   20   51 1
    42   20   52 1
    43   21   22 1
    44   21   23 1
    45   23   24 2
    46   23   25 am
    47   25   26 1
    48   25   53 1
    49   26   27 1
    50   26   54 1
    51   26   55 1
    52   27   32 ar
    53   27   28 ar
    54   28   29 ar
    55   28   56 1
    56   29   30 ar
    57   29   34 1
    58   30   31 ar
    59   30   57 1
    60   31   32 ar
    61   31   33 1
    62   32   58 1
@<TRIPOS>MOLECULE
ZINC34688020
   59    62     0     0     0
SMALL
USER_CHARGES

@<TRIPOS>ATOM
      1 C1          1.4555    1.4555   -0.3553 C.3       1 <0>        -0.0655
      2 C2          1.3495   -0.0476   -0.3343 C.2       1 <0>         0.0834
      3 N1          0.7943   -0.8693   -1.2017 N.2       1 <0>        -0.2802
      4 N2          0.7902   -2.1196   -1.0359 N.2       1 <0>        -0.2878
      5 C3          1.3473   -2.6856    0.0273 C.2       1 <0>        -0.0017
      6 S1          1.9492   -1.2264    0.8727 S.3       1 <0>         0.0376
      7 S2          1.4667   -4.3856    0.4750 S.3       1 <0>         0.1437
      8 C4          0.6320   -5.2559   -0.8802 C.3       1 <0>        -0.1635
      9 C5          0.6632   -6.7398   -0.6187 C.2       1 <0>         0.5360
     10 O1          1.1960   -7.1680    0.3832 O.2       1 <0>        -0.4924
     11 N3          0.0989   -7.5910   -1.4983 N.am      1 <0>        -0.6619
     12 C6          0.2088   -8.9746   -1.3036 C.ar      1 <0>         0.1465
     13 C7          0.2088   -9.4983   -0.0196 C.ar      1 <0>        -0.1129
     14 C8          0.3178  -10.8632    0.1702 C.ar      1 <0>        -0.0876
     15 C9          0.4270  -11.7102   -0.9174 C.ar      1 <0>        -0.1217
     16 C10         0.4274  -11.1970   -2.2008 C.ar      1 <0>        -0.1022
     17 C11         0.3127   -9.8291   -2.4008 C.ar      1 <0>         0.1200
     18 N4          0.3075   -9.3079   -3.6990 N.pl3     1 <0>        -0.6734
     19 C12         1.5620   -8.9266   -4.3661 C.3       1 <0>         0.1208
     20 C13         1.5924   -9.5784   -5.7525 C.3       1 <0>        -0.0272
     21 N5          0.3775   -9.2119   -6.4913 N.4       1 <0>        -0.3784
     22 C14        -0.8035   -9.7682   -5.8191 C.3       1 <0>        -0.0267
     23 C15        -0.9522   -9.1311   -4.4381 C.3       1 <0>         0.1156
     24 C16         0.4577   -9.7455   -7.8576 C.3       1 <0>         0.0253
     25 C17         1.6816   -9.1582   -8.5634 C.3       1 <0>        -0.1404
     26 C18         1.7652   -9.7139   -9.9864 C.3       1 <0>        -0.1173
     27 C19         0.5000   -9.3330  -10.7578 C.3       1 <0>        -0.1315
     28 C20        -0.7239   -9.9203  -10.0520 C.3       1 <0>        -0.1173
     29 C21        -0.8075   -9.3646   -8.6290 C.3       1 <0>        -0.1401
     30 H1          2.3704    1.7481   -0.8704 H         1 <0>         0.1012
     31 H2          0.5949    1.8731   -0.8779 H         1 <0>         0.1047
     32 H3          1.4777    1.8325    0.6672 H         1 <0>         0.0958
     33 H4         -0.4029   -4.9200   -0.9448 H         1 <0>         0.1316
     34 H5          1.1429   -5.0416   -1.8189 H         1 <0>         0.1289
     35 H6         -0.3832   -7.2460   -2.2660 H         1 <0>         0.4106
     36 H7          0.1240   -8.8397    0.8322 H         1 <0>         0.1461
     37 H8          0.3179  -11.2692    1.1710 H         1 <0>         0.1342
     38 H9          0.5126  -12.7757   -0.7636 H         1 <0>         0.1308
     39 H10         0.5129  -11.8614   -3.0480 H         1 <0>         0.1243
     40 H11         1.6068   -7.8425   -4.4699 H         1 <0>         0.0763
     41 H12         2.4105   -9.2766   -3.7781 H         1 <0>         0.1165
     42 H13         2.4689   -9.2300   -6.2987 H         1 <0>         0.1380
     43 H14         1.6387  -10.6619   -5.6438 H         1 <0>         0.1309
     44 H15        -1.6925   -9.5597   -6.4144 H         1 <0>         0.1388
     45 H16        -0.6847  -10.8460   -5.7084 H         1 <0>         0.1308
     46 H17        -1.7650   -9.6163   -3.8977 H         1 <0>         0.1181
     47 H18        -1.1655   -8.0680   -4.5493 H         1 <0>         0.0762
     48 H19         0.5467  -10.8312   -7.8190 H         1 <0>         0.1350
     49 H20         1.5926   -8.0725   -8.6019 H         1 <0>         0.0862
     50 H21         2.5829   -9.4296   -8.0138 H         1 <0>         0.0869
     51 H22         2.6371   -9.2955  -10.4892 H         1 <0>         0.0847
     52 H23         1.8542  -10.7996   -9.9478 H         1 <0>         0.0740
     53 H24         0.4110   -8.2473  -10.7964 H         1 <0>         0.0702
     54 H25         0.5595   -9.7289  -11.7716 H         1 <0>         0.0795
     55 H26        -1.6253   -9.6489  -10.6016 H         1 <0>         0.0848
     56 H27        -0.6349  -11.0060  -10.0135 H         1 <0>         0.0740
     57 H28        -1.6794   -9.7830   -8.1262 H         1 <0>         0.0870
     58 H29        -0.8965   -8.2789   -8.6675 H         1 <0>         0.0862
     59 H30         0.2989   -8.2067   -6.5295 H         1 <0>         0.4187
@<TRIPOS>BOND
     1    1    2 1
     2    1   30 1
     3    1   31 1
     4    1   32 1
     5    2    6 1
     6    2    3 2
     7    3    4 1
     8    4    5 2
     9    5    6 1
    10    5    7 1
    11    7    8 1
    12    8    9 1
    13    8   33 1
    14    8   34 1
    15    9   10 2
    16    9   11 am
    17   11   12 1
    18   11   35 1
    19   12   17 ar
    20   12   13 ar
    21   13   14 ar
    22   13   36 1
    23   14   15 ar
    24   14   37 1
    25   15   16 ar
    26   15   38 1
    27   16   17 ar
    28   16   39 1
    29   17   18 1
    30   18   23 1
    31   18   19 1
    32   19   20 1
    33   19   40 1
    34   19   41 1
    35   20   21 1
    36   20   42 1
    37   20   43 1
    38   21   22 1
    39   21   24 1
    40   21   59 1
    41   22   23 1
    42   22   44 1
    43   22   45 1
    44   23   46 1
    45   23   47 1
    46   24   29 1
    47   24   25 1
    48   24   48 1
    49   25   26 1
    50   25   49 1
    51   25   50 1
    52   26   27 1
    53   26   51 1
    54   26   52 1
    55   27   28 1
    56   27   53 1
    57   27   54 1
    58   28   29 1
    59   28   55 1
    60   28   56 1
    61   29   57 1
    62   29   58 1
@<TRIPOS>MOLECULE
ZINC64640380
   56    60     0     0     0
SMALL
USER_CHARGES

@<TRIPOS>ATOM
      1 C1          1.7351    0.9029   -0.3048 C.3       1 <0>        -0.0984
      2 C2          0.8258   -0.2885   -0.1482 C.ar      1 <0>         0.0725
      3 C3         -0.1562   -0.5367   -1.0917 C.ar      1 <0>         0.0590
      4 N1         -0.9572   -1.5803   -0.9602 N.ar      1 <0>        -0.4311
      5 C4         -0.8239   -2.3910    0.0726 C.ar      1 <0>         0.0932
      6 C5          0.1645   -2.1449    1.0260 C.ar      1 <0>         0.1228
      7 N2          0.9709   -1.0967    0.8858 N.ar      1 <0>        -0.4161
      8 C6          0.3192   -3.0519    2.1881 C.ar      1 <0>        -0.0297
      9 C7          0.4093   -4.4267    1.9907 C.ar      1 <0>        -0.0974
     10 C8          0.5535   -5.2756    3.0711 C.ar      1 <0>         0.0828
     11 C9          0.6044   -4.7557    4.3559 C.ar      1 <0>        -0.0885
     12 C10         0.5128   -3.3960    4.5582 C.ar      1 <0>        -0.1463
     13 C11         0.3805   -2.5239    3.4870 C.ar      1 <0>         0.1316
     14 O1          0.3367   -1.2300    3.9059 O.3       1 <0>        -0.2816
     15 C12        -0.0015   -1.1959    5.3029 C.3       1 <0>         0.0626
     16 H1         -1.0813   -1.1330    5.4375 H         1 <0>         0.0995
     17 C13         0.5251   -2.5526    5.8188 C.3       1 <0>        -0.0996
     18 C14         0.6988   -0.0290    6.0020 C.3       1 <0>         0.1255
     19 N3          0.1679    1.2367    5.4898 N.am      1 <0>        -0.7132
     20 C15         0.6399    2.4067    5.9641 C.2       1 <0>         0.5226
     21 O2          1.5041    2.4116    6.8150 O.2       1 <0>        -0.5335
     22 C16         0.0939    3.7086    5.4371 C.3       1 <0>        -0.1167
     23 C17         0.7836    4.8581    6.1257 C.2       1 <0>         0.0852
     24 C18         1.8564    5.5490    5.6773 C.ar      1 <0>        -0.1608
     25 C19         2.6717    5.4407    4.4616 C.ar      1 <0>        -0.0112
     26 C20         3.7069    6.2935    4.2879 C.ar      1 <0>        -0.1507
     27 C21         4.0203    7.2755    5.2376 C.ar      1 <0>         0.0542
     28 C22         3.3177    7.4366    6.3790 C.ar      1 <0>        -0.2095
     29 C23         2.2077    6.5947    6.6646 C.ar      1 <0>         0.3303
     30 N4          1.3841    6.5519    7.6836 N.pl3     1 <0>        -0.5825
     31 C24         0.4123    5.4767    7.4549 C.3       1 <0>         0.0643
     32 F1          0.6444   -6.6094    2.8765 F         1 <0>        -0.1276
     33 C25        -1.7376   -3.5801    0.2220 C.3       1 <0>        -0.1084
     34 H2          2.6132    0.6163   -0.8835 H         1 <0>         0.0839
     35 H3          1.2029    1.7006   -0.8231 H         1 <0>         0.0808
     36 H4          2.0470    1.2537    0.6790 H         1 <0>         0.0768
     37 H5         -0.2686    0.1247   -1.9380 H         1 <0>         0.1719
     38 H6          0.3661   -4.8310    0.9902 H         1 <0>         0.1508
     39 H7          0.7158   -5.4191    5.2009 H         1 <0>         0.1463
     40 H8         -0.1362   -2.9740    6.5759 H         1 <0>         0.1065
     41 H9          1.5386   -2.4447    6.2054 H         1 <0>         0.1024
     42 H10         0.5213   -0.0894    7.0758 H         1 <0>         0.0989
     43 H11         1.7701   -0.0789    5.8075 H         1 <0>         0.0887
     44 H12        -0.5232    1.2328    4.8092 H         1 <0>         0.4114
     45 H13         0.2713    3.7690    4.3634 H         1 <0>         0.1384
     46 H14        -0.9775    3.7586    5.6317 H         1 <0>         0.1413
     47 H15         2.4485    4.6909    3.7170 H         1 <0>         0.1586
     48 H16         4.3081    6.2155    3.3941 H         1 <0>         0.1580
     49 H17         4.8584    7.9299    5.0487 H         1 <0>         0.1612
     50 H18         3.6004    8.2088    7.0792 H         1 <0>         0.1610
     51 H19        -0.5979    5.8836    7.4107 H         1 <0>         0.1739
     52 H20         0.4842    4.7331    8.2485 H         1 <0>         0.1763
     53 H21        -1.2569   -4.4629   -0.1994 H         1 <0>         0.0868
     54 H22        -1.9448   -3.7486    1.2787 H         1 <0>         0.0814
     55 H23        -2.6721   -3.3886   -0.3055 H         1 <0>         0.0856
     56 H24         1.4103    7.1360    8.4576 H         1 <0>         0.4559
@<TRIPOS>BOND
     1    1    2 1
     2    1   34 1
     3    1   35 1
     4    1   36 1
     5    2    7 ar
     6    2    3 ar
     7    3    4 ar
     8    3   37 1
     9    4    5 ar
    10    5    6 ar
    11    5   33 1
    12    6    7 ar
    13    6    8 1
    14    8   13 ar
    15    8    9 ar
    16    9   10 ar
    17    9   38 1
    18   10   11 ar
    19   10   32 1
    20   11   12 ar
    21   11   39 1
    22   12   17 1
    23   12   13 ar
    24   13   14 1
    25   14   15 1
    26   15   16 1
    27   15   17 1
    28   15   18 1
    29   17   40 1
    30   17   41 1
    31   18   19 1
    32   18   42 1
    33   18   43 1
    34   19   20 am
    35   19   44 1
    36   20   21 2
    37   20   22 1
    38   22   23 1
    39   22   45 1
    40   22   46 1
    41   23   31 1
    42   23   24 2
    43   24   29 ar
    44   24   25 ar
    45   25   26 ar
    46   25   47 1
    47   26   27 ar
    48   26   48 1
    49   27   28 ar
    50   27   49 1
    51   28   29 ar
    52   28   50 1
    53   29   30 2
    54   30   31 1
    55   30   56 1
    56   31   51 1
    57   31   52 1
    58   33   53 1
    59   33   54 1
    60   33   55 1
@<TRIPOS>MOLECULE
ZINC36236130
   33    34     0     0     0
SMALL
USER_CHARGES

@<TRIPOS>ATOM
      1 C1         -0.0173    1.4248    0.0099 C.3       1 <0>         0.0194
      2 O1          0.0021   -0.0041    0.0020 O.3       1 <0>        -0.3516
      3 C2         -1.2953   -0.6030    0.0112 C.3       1 <0>         0.0614
      4 H1         -2.0122    0.0409    0.5207 H         1 <0>         0.1044
      5 C3         -1.7661   -0.9134   -1.4319 C.3       1 <0>        -0.0278
      6 N1         -2.7493   -2.0102   -1.2401 N.4       1 <0>        -0.5110
      7 C4         -2.1841   -2.8782   -0.1844 C.3       1 <0>        -0.0202
      8 C5         -1.2484   -1.9998    0.6720 C.3       1 <0>         0.1294
      9 H2         -0.2329   -2.3953    0.6490 H         1 <0>         0.1473
     10 N2         -1.7353   -1.9262    2.0518 N.am      1 <0>        -0.7290
     11 C6         -1.3360   -2.8413    2.9571 C.2       1 <0>         0.5671
     12 O2         -0.5718   -3.7279    2.6287 O.2       1 <0>        -0.4884
     13 C7         -1.8271   -2.7670    4.3488 C.ar      1 <0>        -0.1387
     14 C8         -2.7093   -1.7535    4.7280 C.ar      1 <0>        -0.0472
     15 C9         -3.1640   -1.6899    6.0292 C.ar      1 <0>        -0.1012
     16 C10        -2.7470   -2.6282    6.9588 C.ar      1 <0>        -0.0415
     17 C11        -1.8732   -3.6344    6.5907 C.ar      1 <0>        -0.1082
     18 C12        -1.4153   -3.7139    5.2896 C.ar      1 <0>         0.0299
     19 Cl1        -0.3242   -4.9826    4.8272 Cl        1 <0>        -0.0103
     20 Br1        -4.3589   -0.3179    6.5447 Br        1 <0>        -0.0200
     21 H3          1.0053    1.8021    0.0021 H         1 <0>         0.1066
     22 H4         -0.5445    1.7859   -0.8732 H         1 <0>         0.0532
     23 H5         -0.5275    1.7763    0.9067 H         1 <0>         0.0562
     24 H6         -2.2449   -0.0409   -1.8764 H         1 <0>         0.1463
     25 H7         -0.9301   -1.2492   -2.0455 H         1 <0>         0.1515
     26 H8         -3.6369   -1.6337   -0.9428 H         1 <0>         0.4329
     27 H9         -2.9860   -3.2775    0.4367 H         1 <0>         0.1417
     28 H10        -1.6200   -3.6938   -0.6368 H         1 <0>         0.1505
     29 H11        -2.3450   -1.2187    2.3138 H         1 <0>         0.4056
     30 H12        -3.0348   -1.0207    4.0045 H         1 <0>         0.1400
     31 H13        -3.1058   -2.5733    7.9759 H         1 <0>         0.1543
     32 H14        -1.5518   -4.3626    7.3206 H         1 <0>         0.1571
     33 H15        -2.8604   -2.5316   -2.0968 H         1 <0>         0.4402
@<TRIPOS>BOND
     1    1    2 1
     2    1   21 1
     3    1   22 1
     4    1   23 1
     5    2    3 1
     6    3    4 1
     7    3    8 1
     8    3    5 1
     9    5    6 1
    10    5   24 1
    11    5   25 1
    12    6    7 1
    13    6   26 1
    14    6   33 1
    15    7    8 1
    16    7   27 1
    17    7   28 1
    18    8    9 1
    19    8   10 1
    20   10   11 am
    21   10   29 1
    22   11   12 2
    23   11   13 1
    24   13   18 ar
    25   13   14 ar
    26   14   15 ar
    27   14   30 1
    28   15   16 ar
    29   15   20 1
    30   16   17 ar
    31   16   31 1
    32   17   18 ar
    33   17   32 1
    34   18   19 1
@<TRIPOS>MOLECULE
ZINC41015563
   33    35     0     0     0
SMALL
USER_CHARGES

@<TRIPOS>ATOM
      1 C1          0.2493    1.0052   -3.0906 C.2       1 <0>        -0.2552
      2 C2          1.1751    1.9178   -2.7149 C.2       1 <0>         0.0832
      3 N1          0.8438    2.3564   -1.4824 N.pl3     1 <0>        -0.4449
      4 H1          1.3287    3.0159   -0.9620 H         1 <0>         0.4542
      5 N2         -0.3242    1.6914   -1.0876 N.2       1 <0>        -0.2574
      6 C3         -0.6796    0.8819   -2.0521 C.2       1 <0>        -0.0027
      7 C4         -1.8818   -0.0268   -2.0452 C.3       1 <0>         0.0888
      8 N3         -1.5398   -1.2861   -1.3705 N.4       1 <0>        -0.5053
      9 C5         -2.7426   -2.1214   -1.2539 C.3       1 <0>         0.0909
     10 H2         -3.5307   -1.5551   -0.7575 H         1 <0>         0.1587
     11 C6         -3.2139   -2.5334   -2.6507 C.3       1 <0>        -0.1859
     12 C7         -4.2752   -3.6305   -2.4969 C.3       1 <0>         0.0647
     13 O1         -3.6536   -4.7802   -1.9208 O.3       1 <0>        -0.2872
     14 C8         -2.8905   -4.6000   -0.8109 C.ar      1 <0>         0.1831
     15 C9         -2.4222   -3.3517   -0.4434 C.ar      1 <0>        -0.2045
     16 C10        -1.6427   -3.2162    0.6933 C.ar      1 <0>        -0.0788
     17 C11        -1.3320   -4.3219    1.4627 C.ar      1 <0>        -0.0474
     18 C12        -1.8010   -5.5713    1.0980 C.ar      1 <0>        -0.0416
     19 C13        -2.5779   -5.7112   -0.0328 C.ar      1 <0>        -0.0517
     20 Cl1        -3.1655   -7.2798   -0.4889 Cl        1 <0>        -0.0106
     21 Cl2        -0.3534   -4.1427    2.8853 Cl        1 <0>        -0.0277
     22 H3          0.2286    0.4701   -4.0285 H         1 <0>         0.1620
     23 H4          2.0266    2.2378   -3.2971 H         1 <0>         0.1935
     24 H5         -2.7011    0.4586   -1.5150 H         1 <0>         0.1482
     25 H6         -2.1857   -0.2351   -3.0710 H         1 <0>         0.1539
     26 H7         -0.8406   -1.7765   -1.9078 H         1 <0>         0.4319
     27 H8         -3.6464   -1.6729   -3.1612 H         1 <0>         0.1209
     28 H9         -2.3703   -2.9162   -3.2251 H         1 <0>         0.1075
     29 H10        -5.0744   -3.2793   -1.8442 H         1 <0>         0.0869
     30 H11        -4.6842   -3.8853   -3.4746 H         1 <0>         0.1383
     31 H12        -1.2753   -2.2419    0.9798 H         1 <0>         0.1399
     32 H13        -1.5600   -6.4357    1.6990 H         1 <0>         0.1645
     33 H14        -1.1781   -1.0870   -0.4499 H         1 <0>         0.4296
@<TRIPOS>BOND
     1    1    6 1
     2    1    2 2
     3    1   22 1
     4    2    3 1
     5    2   23 1
     6    3    4 1
     7    3    5 1
     8    5    6 2
     9    6    7 1
    10    7    8 1
    11    7   24 1
    12    7   25 1
    13    8    9 1
    14    8   26 1
    15    8   33 1
    16    9   10 1
    17    9   15 1
    18    9   11 1
    19   11   12 1
    20   11   27 1
    21   11   28 1
    22   12   13 1
    23   12   29 1
    24   12   30 1
    25   13   14 1
    26   14   19 ar
    27   14   15 ar
    28   15   16 ar
    29   16   17 ar
    30   16   31 1
    31   17   18 ar
    32   17   21 1
    33   18   19 ar
    34   18   32 1
    35   19   20 1
@<TRIPOS>MOLECULE
ZINC50163548
   39    40     0     0     0
SMALL
USER_CHARGES

@<TRIPOS>ATOM
      1 C1         -0.0187    1.5258    0.0104 C.3       1 <0>        -0.1921
      2 C2          0.0021   -0.0041    0.0020 C.3       1 <0>         0.1457
      3 H1         -1.0205   -0.3814    0.0098 H         1 <0>         0.1157
      4 C3          0.7421   -0.5109    1.2415 C.3       1 <0>        -0.1154
      5 H2          0.8349   -1.5958    1.1918 H         1 <0>         0.1085
      6 C4          2.1365    0.1196    1.2981 C.3       1 <0>        -0.1417
      7 C5          2.8387   -0.3325    2.5817 C.3       1 <0>        -0.1468
      8 C6          1.9796    0.0507    3.7887 C.3       1 <0>        -0.0091
      9 N1          0.6697   -0.6041    3.6891 N.4       1 <0>        -0.5032
     10 C7         -0.0399   -0.1221    2.4981 C.3       1 <0>        -0.0099
     11 N2          0.6878   -0.4765   -1.2033 N.pl3     1 <0>        -1.1092
     12 S1         -0.1875   -0.8749   -2.5515 S.o2      1 <0>         2.6975
     13 O1          0.7512   -1.2650   -3.5445 O.2       1 <0>        -0.9365
     14 O2         -1.2362   -1.7295   -2.1169 O.2       1 <0>        -0.9354
     15 C8         -0.9505    0.6032   -3.1327 C.ar      1 <0>        -0.7078
     16 C9         -0.6003    1.1236   -4.3646 C.ar      1 <0>         0.0125
     17 C10        -1.1983    2.2830   -4.8215 C.ar      1 <0>        -0.1266
     18 C11        -2.1475    2.9242   -4.0472 C.ar      1 <0>        -0.0247
     19 C12        -2.4997    2.4058   -2.8146 C.ar      1 <0>        -0.0932
     20 C13        -1.9046    1.2402   -2.3586 C.ar      1 <0>         0.1967
     21 F1         -2.2518    0.7290   -1.1572 F         1 <0>        -0.1148
     22 Cl1        -3.6911    3.2109   -1.8420 Cl        1 <0>        -0.0294
     23 H3          1.0039    1.9031    0.0027 H         1 <0>         0.0769
     24 H4         -0.5459    1.8868   -0.8726 H         1 <0>         0.0673
     25 H5         -0.5289    1.8773    0.9072 H         1 <0>         0.0751
     26 H6          2.7168   -0.2009    0.4329 H         1 <0>         0.0954
     27 H7          2.0457    1.2058    1.2955 H         1 <0>         0.0921
     28 H8          2.9751   -1.4137    2.5606 H         1 <0>         0.0900
     29 H9          3.8102    0.1562    2.6566 H         1 <0>         0.1145
     30 H10         2.4768   -0.2696    4.7043 H         1 <0>         0.1347
     31 H11         1.8441    1.1320    3.8090 H         1 <0>         0.1310
     32 H12         0.7983   -1.6026    3.6209 H         1 <0>         0.4291
     33 H13        -0.1331    0.9628    2.5463 H         1 <0>         0.1370
     34 H14        -1.0330   -0.5698    2.4605 H         1 <0>         0.1399
     35 H15         1.6545   -0.5560   -1.2117 H         1 <0>         0.4229
     36 H16         0.1413    0.6241   -4.9704 H         1 <0>         0.1640
     37 H17        -0.9235    2.6887   -5.7839 H         1 <0>         0.1572
     38 H18        -2.6138    3.8302   -4.4051 H         1 <0>         0.1580
     39 H19         0.1257   -0.3926    4.5121 H         1 <0>         0.4343
@<TRIPOS>BOND
     1    1    2 1
     2    1   23 1
     3    1   24 1
     4    1   25 1
     5    2    3 1
     6    2    4 1
     7    2   11 1
     8    4    5 1
     9    4   10 1
    10    4    6 1
    11    6    7 1
    12    6   26 1
    13    6   27 1
    14    7    8 1
    15    7   28 1
    16    7   29 1
    17    8    9 1
    18    8   30 1
    19    8   31 1
    20    9   10 1
    21    9   32 1
    22    9   39 1
    23   10   33 1
    24   10   34 1
    25   11   12 1
    26   11   35 1
    27   12   13 2
    28   12   14 2
    29   12   15 1
    30   15   20 ar
    31   15   16 ar
    32   16   17 ar
    33   16   36 1
    34   17   18 ar
    35   17   37 1
    36   18   19 ar
    37   18   38 1
    38   19   20 ar
    39   19   22 1
    40   20   21 1
@<TRIPOS>MOLECULE
ZINC44684886
   39    42     0     0     0
SMALL
USER_CHARGES

@<TRIPOS>ATOM
      1 C1         -0.0167    1.3782    0.0096 C.ar      1 <0>        -0.0616
      2 C2          1.1640    2.0923    0.0022 C.ar      1 <0>        -0.1183
      3 C3          2.3863    1.4236   -0.0135 C.ar      1 <0>         0.1684
      4 C4          2.3928    0.0344   -0.0210 C.ar      1 <0>        -0.1441
      5 C5          1.2132   -0.6764   -0.0137 C.ar      1 <0>        -0.0347
      6 C6          0.0021   -0.0041    0.0020 C.ar      1 <0>        -0.1066
      7 Br1         1.2467   -2.5671   -0.0247 Br        1 <0>        -0.0423
      8 C7          3.8450   -0.3840   -0.0367 C.3       1 <0>         0.1006
      9 H1          4.0848   -0.9648    0.8539 H         1 <0>         0.1108
     10 C8          4.6052    0.9252   -0.0369 C.2       1 <0>         0.5485
     11 O1          5.8107    1.0583   -0.0474 O.2       1 <0>        -0.4858
     12 N1          3.6933    1.9121   -0.0231 N.am      1 <0>        -0.6536
     13 N2          4.1448   -1.1566   -1.2496 N.3       1 <0>        -0.6454
     14 C9          5.2944   -2.0460   -1.0365 C.3       1 <0>         0.0640
     15 H2          5.3130   -2.4180   -0.0121 H         1 <0>         0.0896
     16 C10         6.6242   -1.3302   -1.3919 C.3       1 <0>        -0.1312
     17 C11         7.5578   -2.4992   -1.7703 C.3       1 <0>        -0.0116
     18 N3          6.7009   -3.6361   -2.1537 N.4       1 <0>        -0.3584
     19 C12         5.2867   -3.2159   -2.0517 C.3       1 <0>        -0.0074
     20 C13         6.9997   -4.0366   -3.5352 C.3       1 <0>        -0.0802
     21 C14         7.2630   -5.5204   -3.7993 C.3       1 <0>        -0.1541
     22 C15         8.4193   -4.5194   -3.8394 C.3       1 <0>        -0.1549
     23 H3         -0.9609    1.9022    0.0260 H         1 <0>         0.1499
     24 H4          1.1406    3.1721    0.0082 H         1 <0>         0.1422
     25 H5         -0.9249   -0.5582    0.0080 H         1 <0>         0.1472
     26 H6          3.9179    2.8557   -0.0202 H         1 <0>         0.4235
     27 H7          3.3366   -1.6774   -1.5556 H         1 <0>         0.3656
     28 H8          6.4857   -0.6580   -2.2387 H         1 <0>         0.1071
     29 H9          7.0136   -0.7898   -0.5291 H         1 <0>         0.1237
     30 H10         8.1903   -2.2117   -2.6103 H         1 <0>         0.1351
     31 H11         8.1755   -2.7724   -0.9147 H         1 <0>         0.1313
     32 H12         4.6722   -4.0362   -1.6808 H         1 <0>         0.1360
     33 H13         4.9216   -2.8752   -3.0206 H         1 <0>         0.1423
     34 H14         6.4835   -3.4708   -4.3107 H         1 <0>         0.1754
     35 H15         7.2144   -6.1995   -2.9481 H         1 <0>         0.1193
     36 H16         6.9198   -5.9312   -4.7489 H         1 <0>         0.1334
     37 H17         8.8369   -4.2715   -4.8153 H         1 <0>         0.1335
     38 H18         9.1316   -4.5399   -3.0145 H         1 <0>         0.1198
     39 H19         6.8693   -4.4130   -1.5323 H         1 <0>         0.4231
@<TRIPOS>BOND
     1    1    6 ar
     2    1    2 ar
     3    1   23 1
     4    2    3 ar
     5    2   24 1
     6    3   12 1
     7    3    4 ar
     8    4    5 ar
     9    4    8 1
    10    5    6 ar
    11    5    7 1
    12    6   25 1
    13    8    9 1
    14    8   10 1
    15    8   13 1
    16   10   11 2
    17   10   12 am
    18   12   26 1
    19   13   14 1
    20   13   27 1
    21   14   15 1
    22   14   19 1
    23   14   16 1
    24   16   17 1
    25   16   28 1
    26   16   29 1
    27   17   18 1
    28   17   30 1
    29   17   31 1
    30   18   19 1
    31   18   20 1
    32   18   39 1
    33   19   32 1
    34   19   33 1
    35   20   22 1
    36   20   21 1
    37   20   34 1
    38   21   22 1
    39   21   35 1
    40   21   36 1
    41   22   37 1
    42   22   38 1
@<TRIPOS>MOLECULE
ZINC63061652
   38    39     0     0     0
SMALL
USER_CHARGES

@<TRIPOS>ATOM
      1 C1         -0.0612    1.5198    0.0226 C.3       1 <0>        -0.1119
      2 C2         -0.1224    0.0141    0.0067 C.ar      1 <0>        -0.0967
      3 C3         -0.2192   -0.6612   -1.1947 C.ar      1 <0>        -0.0521
      4 C4         -0.2754   -2.0432   -1.2098 C.ar      1 <0>        -0.1120
      5 C5         -0.2348   -2.7522   -0.0223 C.ar      1 <0>        -0.0546
      6 C6         -0.1377   -2.0809    1.1809 C.ar      1 <0>        -0.2011
      7 C7         -0.0759   -0.6949    1.1980 C.ar      1 <0>         0.1248
      8 O1          0.0245   -0.0327    2.3806 O.3       1 <0>        -0.3007
      9 C8         -0.0645   -0.8161    3.5724 C.3       1 <0>         0.1477
     10 H1         -0.5511   -1.7652    3.3478 H         1 <0>         0.1259
     11 C9         -0.8702   -0.0704    4.6047 C.2       1 <0>        -0.3050
     12 C10        -0.8864    1.3156    4.7922 C.2       1 <0>         0.0462
     13 N1         -1.7029    1.5851    5.7784 N.2       1 <0>        -0.2681
     14 N2         -2.2328    0.3774    6.2504 N.pl3     1 <0>        -0.3531
     15 C11        -1.7104   -0.6228    5.5103 C.2       1 <0>         0.1024
     16 C12        -3.1897    0.2271    7.3495 C.3       1 <0>         0.0874
     17 C13         1.3414   -1.0797    4.1156 C.3       1 <0>         0.0201
     18 H2          1.2798   -1.7501    4.9728 H         1 <0>         0.1542
     19 C14         2.1972   -1.7250    3.0239 C.3       1 <0>        -0.1940
     20 N3          1.9523    0.1903    4.5301 N.4       1 <0>        -0.6322
     21 Br1        -0.4084   -2.9648   -2.8556 Br        1 <0>        -0.0312
     22 H3          0.9784    1.8418   -0.0380 H         1 <0>         0.0742
     23 H4         -0.6142    1.9149   -0.8295 H         1 <0>         0.0745
     24 H5         -0.5034    1.8917    0.9468 H         1 <0>         0.0735
     25 H6         -0.2513   -0.1096   -2.1227 H         1 <0>         0.1452
     26 H7         -0.2795   -3.8312   -0.0362 H         1 <0>         0.1408
     27 H8         -0.1064   -2.6347    2.1076 H         1 <0>         0.1384
     28 H9         -0.3224    2.0385    4.2215 H         1 <0>         0.1883
     29 H10        -1.9227   -1.6758    5.6223 H         1 <0>         0.1863
     30 H11        -4.2051    0.2704    6.9557 H         1 <0>         0.0892
     31 H12        -3.0311   -0.7330    7.8406 H         1 <0>         0.0989
     32 H13        -3.0448    1.0321    8.0700 H         1 <0>         0.1009
     33 H14         2.2588   -1.0546    2.1666 H         1 <0>         0.0885
     34 H15         3.1988   -1.9128    3.4108 H         1 <0>         0.0903
     35 H16         1.7439   -2.6674    2.7163 H         1 <0>         0.1093
     36 H17         1.3878    0.6159    5.2501 H         1 <0>         0.4339
     37 H18         2.8794    0.0165    4.8883 H         1 <0>         0.4356
     38 H19         2.0092    0.8109    3.7366 H         1 <0>         0.4364
@<TRIPOS>BOND
     1    1    2 1
     2    1   22 1
     3    1   23 1
     4    1   24 1
     5    2    7 ar
     6    2    3 ar
     7    3    4 ar
     8    3   25 1
     9    4    5 ar
    10    4   21 1
    11    5    6 ar
    12    5   26 1
    13    6    7 ar
    14    6   27 1
    15    7    8 1
    16    8    9 1
    17    9   10 1
    18    9   11 1
    19    9   17 1
    20   11   15 2
    21   11   12 1
    22   12   13 2
    23   12   28 1
    24   13   14 1
    25   14   15 1
    26   14   16 1
    27   15   29 1
    28   16   30 1
    29   16   31 1
    30   16   32 1
    31   17   18 1
    32   17   19 1
    33   17   20 1
    34   19   33 1
    35   19   34 1
    36   19   35 1
    37   20   36 1
    38   20   37 1
    39   20   38 1
@<TRIPOS>MOLECULE
ZINC35052746
   42    44     0     0     0
SMALL
USER_CHARGES

@<TRIPOS>ATOM
      1 C1          0.0350   -0.7635    1.3032 C.3       1 <0>        -0.1798
      2 C2          0.0021   -0.0041    0.0020 C.2       1 <0>         0.5170
      3 O1         -0.1141    1.2032    0.0073 O.2       1 <0>        -0.5266
      4 N1          0.1018   -0.6664   -1.1675 N.am      1 <0>        -0.6276
      5 C3          0.1973    0.0668   -2.4372 C.3       1 <0>         0.1145
      6 C4         -0.8932   -0.4435   -3.3845 C.3       1 <0>        -0.1574
      7 C5         -0.7713   -1.9625   -3.5251 C.3       1 <0>         0.0225
      8 C6         -0.9722   -2.6208   -2.1582 C.3       1 <0>        -0.1578
      9 C7          0.1231   -2.1352   -1.1966 C.3       1 <0>         0.1092
     10 N2         -1.7948   -2.4512   -4.4587 N.4       1 <0>        -0.5087
     11 C8         -1.6029   -3.8897   -4.6865 C.3       1 <0>         0.0785
     12 C9         -2.6528   -4.3911   -5.6443 C.2       1 <0>        -0.3101
     13 C10        -3.7875   -5.0429   -5.3106 C.2       1 <0>         0.1248
     14 N3         -4.4596   -5.3211   -6.4485 N.pl3     1 <0>        -0.4473
     15 H1         -5.3098   -5.7844   -6.5084 H         1 <0>         0.4581
     16 N4         -3.7167   -4.8249   -7.5273 N.2       1 <0>        -0.2462
     17 C11        -2.6281   -4.2577   -7.0479 C.2       1 <0>         0.1820
     18 C12        -1.5668   -3.6008   -7.8416 C.2       1 <0>        -0.1175
     19 C13        -1.0927   -3.9256   -9.0837 C.2       1 <0>        -0.0869
     20 C14        -0.0864   -3.1584   -9.6303 C.2       1 <0>        -0.1555
     21 C15         0.4025   -2.1081   -8.9233 C.2       1 <0>        -0.1132
     22 S1         -0.5762   -2.1731   -7.4317 S.3       1 <0>        -0.0106
     23 H2         -0.9844   -0.9728    1.6276 H         1 <0>         0.0986
     24 H3          0.5714   -1.7019    1.1628 H         1 <0>         0.0839
     25 H4          0.5416   -0.1652    2.0605 H         1 <0>         0.1015
     26 H5          0.0545    1.1320   -2.2557 H         1 <0>         0.1132
     27 H6          1.1773   -0.1018   -2.8837 H         1 <0>         0.0820
     28 H7         -1.8736   -0.1931   -2.9791 H         1 <0>         0.0934
     29 H8         -0.7733    0.0232   -4.3622 H         1 <0>         0.1016
     30 H9          0.2181   -2.2136   -3.9072 H         1 <0>         0.1450
     31 H10        -1.9518   -2.3500   -1.7643 H         1 <0>         0.0950
     32 H11        -0.9085   -3.7039   -2.2631 H         1 <0>         0.1035
     33 H12         1.0971   -2.4797   -1.5439 H         1 <0>         0.0854
     34 H13        -0.0686   -2.5233   -0.1962 H         1 <0>         0.1111
     35 H14        -2.7109   -2.2920   -4.0670 H         1 <0>         0.4244
     36 H15        -0.6132   -4.0618   -5.1096 H         1 <0>         0.1387
     37 H16        -1.6909   -4.4224   -3.7396 H         1 <0>         0.1437
     38 H17        -4.1022   -5.2973   -4.3093 H         1 <0>         0.1968
     39 H18        -1.4991   -4.7670   -9.6252 H         1 <0>         0.1471
     40 H19         0.3083   -3.3904  -10.6085 H         1 <0>         0.1539
     41 H20         1.1807   -1.4101   -9.1949 H         1 <0>         0.2021
     42 H21        -1.7134   -1.9581   -5.3353 H         1 <0>         0.4175
@<TRIPOS>BOND
     1    1    2 1
     2    1   23 1
     3    1   24 1
     4    1   25 1
     5    2    3 2
     6    2    4 am
     7    4    9 1
     8    4    5 1
     9    5    6 1
    10    5   26 1
    11    5   27 1
    12    6    7 1
    13    6   28 1
    14    6   29 1
    15    7    8 1
    16    7   10 1
    17    7   30 1
    18    8    9 1
    19    8   31 1
    20    8   32 1
    21    9   33 1
    22    9   34 1
    23   10   11 1
    24   10   35 1
    25   10   42 1
    26   11   12 1
    27   11   36 1
    28   11   37 1
    29   12   17 1
    30   12   13 2
    31   13   14 1
    32   13   38 1
    33   14   15 1
    34   14   16 1
    35   16   17 2
    36   17   18 1
    37   18   22 1
    38   18   19 2
    39   19   20 1
    40   19   39 1
    41   20   21 2
    42   20   40 1
    43   21   22 1
    44   21   41 1
@<TRIPOS>MOLECULE
ZINC40633752
   29    30     0     0     0
SMALL
USER_CHARGES

@<TRIPOS>ATOM
      1 C1         -0.0173    1.4248    0.0099 C.3       1 <0>         0.0197
      2 O1          0.0021   -0.0041    0.0020 O.3       1 <0>        -0.3665
      3 C2         -1.2953   -0.6030    0.0112 C.3       1 <0>         0.0718
      4 H1         -2.0071    0.0456    0.5219 H         1 <0>         0.1152
      5 C3         -1.2425   -1.9872    0.6976 C.3       1 <0>        -0.1361
      6 C4         -2.1963   -2.8426   -0.1737 C.3       1 <0>         0.0155
      7 H2         -3.2349   -2.6663    0.1062 H         1 <0>         0.1777
      8 N1         -1.9333   -2.3497   -1.5499 N.4       1 <0>        -0.4995
      9 C5         -1.7649   -0.8831   -1.4284 C.3       1 <0>        -0.0316
     10 C6         -1.8564   -4.3060   -0.0549 C.2       1 <0>         0.5073
     11 O2         -1.2034   -4.8490   -0.9208 O.2       1 <0>        -0.4510
     12 N2         -2.2780   -5.0112    1.0134 N.am      1 <0>        -0.5993
     13 C7         -1.9644   -6.3613    1.1229 C.2       1 <0>         0.2395
     14 N3         -1.2687   -7.1084    0.2938 N.2       1 <0>        -0.5061
     15 C8         -1.0557   -8.3878    0.5425 C.2       1 <0>         0.1048
     16 C9         -1.5855   -8.8894    1.6860 C.2       1 <0>        -0.2317
     17 S1         -2.3767   -7.4341    2.3524 S.3       1 <0>         0.2175
     18 Br1        -1.5039  -10.6447    2.3846 Br        1 <0>         0.0769
     19 H3          1.0053    1.8021    0.0021 H         1 <0>         0.1040
     20 H4         -0.5445    1.7859   -0.8732 H         1 <0>         0.0524
     21 H5         -0.5275    1.7763    0.9067 H         1 <0>         0.0580
     22 H6         -0.2306   -2.3917    0.6728 H         1 <0>         0.1198
     23 H7         -1.6087   -1.9239    1.7223 H         1 <0>         0.1359
     24 H8         -1.0907   -2.7684   -1.9143 H         1 <0>         0.4426
     25 H9         -2.7152   -0.3822   -1.6131 H         1 <0>         0.1469
     26 H10        -1.0145   -0.5348   -2.1381 H         1 <0>         0.1492
     27 H11        -2.8003   -4.5769    1.7059 H         1 <0>         0.4364
     28 H12        -0.4856   -9.0069   -0.1344 H         1 <0>         0.1912
     29 H13        -2.7161   -2.5607   -2.1506 H         1 <0>         0.4394
@<TRIPOS>BOND
     1    1    2 1
     2    1   19 1
     3    1   20 1
     4    1   21 1
     5    2    3 1
     6    3    4 1
     7    3    9 1
     8    3    5 1
     9    5    6 1
    10    5   22 1
    11    5   23 1
    12    6    7 1
    13    6    8 1
    14    6   10 1
    15    8    9 1
    16    8   24 1
    17    8   29 1
    18    9   25 1
    19    9   26 1
    20   10   11 2
    21   10   12 am
    22   12   13 1
    23   12   27 1
    24   13   17 1
    25   13   14 2
    26   14   15 1
    27   15   16 2
    28   15   28 1
    29   16   17 1
    30   16   18 1
@<TRIPOS>MOLECULE
ZINC50199009
   46    47     0     0     0
SMALL
USER_CHARGES

@<TRIPOS>ATOM
      1 C1          0.6283   -0.7763   -0.4210 C.3       1 <0>         0.0608
      2 N1         -0.2372    0.0493    0.4248 N.pl3     1 <0>        -1.0055
      3 C2         -0.2777   -0.1758    1.8719 C.3       1 <0>         0.1579
      4 C3         -0.5963   -1.6460    2.1506 C.3       1 <0>        -0.1182
      5 C4         -1.9551   -1.9977    1.5416 C.3       1 <0>        -0.1254
      6 C5         -3.0375   -1.1141    2.1651 C.3       1 <0>        -0.1433
      7 C6         -2.7188    0.3561    1.8864 C.3       1 <0>        -0.1137
      8 C7         -1.3600    0.7078    2.4954 C.3       1 <0>        -0.1644
      9 C8          1.0811    0.1759    2.4809 C.3       1 <0>        -0.0132
     10 N2          1.4437    1.5499    2.1086 N.4       1 <0>        -0.6413
     11 S1         -1.1699    1.2370   -0.2548 S.o2      1 <0>         2.5745
     12 O1         -1.6421    2.0016    0.8460 O.2       1 <0>        -0.9398
     13 O2         -0.3393    1.8285   -1.2445 O.2       1 <0>        -0.9467
     14 C9         -2.5473    0.3558   -1.0402 C.3       1 <0>        -0.5894
     15 C10        -2.0243   -0.4579   -2.2279 C.3       1 <0>        -0.1466
     16 C11        -3.2035   -1.1347   -2.9317 C.3       1 <0>         0.0667
     17 O3         -4.1424   -0.1409   -3.3475 O.3       1 <0>        -0.3717
     18 C12        -4.7007    0.6197   -2.2743 C.3       1 <0>         0.0685
     19 C13        -3.5817    1.3670   -1.5441 C.3       1 <0>        -0.1448
     20 H1          0.1089   -1.6985   -0.6817 H         1 <0>         0.0756
     21 H2          0.8762   -0.2293   -1.3306 H         1 <0>         0.0969
     22 H3          1.5439   -1.0155    0.1201 H         1 <0>         0.0822
     23 H4          0.1748   -2.2755    1.7064 H         1 <0>         0.0815
     24 H5         -0.6264   -1.8135    3.2273 H         1 <0>         0.0895
     25 H6         -1.9251   -1.8302    0.4650 H         1 <0>         0.0640
     26 H7         -2.1822   -3.0451    1.7402 H         1 <0>         0.0799
     27 H8         -4.0055   -1.3647    1.7313 H         1 <0>         0.0725
     28 H9         -3.0676   -1.2816    3.2418 H         1 <0>         0.0762
     29 H10        -2.6887    0.5236    0.8097 H         1 <0>         0.0385
     30 H11        -3.4899    0.9856    2.3306 H         1 <0>         0.0913
     31 H12        -1.3901    0.5403    3.5720 H         1 <0>         0.0895
     32 H13        -1.1330    1.7552    2.2968 H         1 <0>         0.1409
     33 H14         1.0242    0.0966    3.5665 H         1 <0>         0.1527
     34 H15         1.8371   -0.5138    2.1054 H         1 <0>         0.1422
     35 H16         1.4156    1.6449    1.1045 H         1 <0>         0.4281
     36 H17         0.7898    2.1951    2.5260 H         1 <0>         0.4375
     37 H18        -3.0133   -0.3122   -0.3158 H         1 <0>         0.1569
     38 H19        -1.5144    0.2048   -2.9272 H         1 <0>         0.0948
     39 H20        -1.3285   -1.2173   -1.8711 H         1 <0>         0.0872
     40 H21        -2.8420   -1.6806   -3.8031 H         1 <0>         0.1066
     41 H22        -3.6882   -1.8275   -2.2438 H         1 <0>         0.0570
     42 H23        -5.4178    1.3377   -2.6722 H         1 <0>         0.1090
     43 H24        -5.2050   -0.0502   -1.5778 H         1 <0>         0.0593
     44 H25        -3.9997    1.9127   -0.6982 H         1 <0>         0.0953
     45 H26        -3.1033    2.0666   -2.2296 H         1 <0>         0.0879
     46 H27         2.3749    1.7535    2.4398 H         1 <0>         0.4426
@<TRIPOS>BOND
     1    1    2 1
     2    1   20 1
     3    1   21 1
     4    1   22 1
     5    2    3 1
     6    2   11 1
     7    3    8 1
     8    3    4 1
     9    3    9 1
    10    4    5 1
    11    4   23 1
    12    4   24 1
    13    5    6 1
    14    5   25 1
    15    5   26 1
    16    6    7 1
    17    6   27 1
    18    6   28 1
    19    7    8 1
    20    7   29 1
    21    7   30 1
    22    8   31 1
    23    8   32 1
    24    9   10 1
    25    9   33 1
    26    9   34 1
    27   10   35 1
    28   10   36 1
    29   10   46 1
    30   11   12 2
    31   11   13 2
    32   11   14 1
    33   14   19 1
    34   14   15 1
    35   14   37 1
    36   15   16 1
    37   15   38 1
    38   15   39 1
    39   16   17 1
    40   16   40 1
    41   16   41 1
    42   17   18 1
    43   18   19 1
    44   18   42 1
    45   18   43 1
    46   19   44 1
    47   19   45 1
@<TRIPOS>MOLECULE
ZINC61890726
   44    46     0     0     0
SMALL
USER_CHARGES

@<TRIPOS>ATOM
      1 C1         -0.0611    1.3222    0.0072 C.2       1 <0>        -0.1896
      2 C2          1.2555    1.7931   -0.0010 C.2       1 <0>        -0.1232
      3 C3          2.0806    0.6887   -0.0213 C.2       1 <0>        -0.0537
      4 N1          1.2773   -0.4291   -0.0253 N.pl3     1 <0>        -0.4131
      5 C4         -0.0183   -0.0316   -0.0079 C.2       1 <0>         0.0129
      6 C5          1.7449   -1.8173   -0.0450 C.3       1 <0>         0.1073
      7 C6          1.3106   -2.4854   -1.3527 C.3       1 <0>        -0.1586
      8 C7          1.7327   -3.9561   -1.3325 C.3       1 <0>        -0.0015
      9 N2          1.0954   -4.6362   -0.1986 N.4       1 <0>        -0.5067
     10 C8          1.5628   -4.0474    1.0621 C.3       1 <0>        -0.0015
     11 C9          1.1341   -2.5802    1.1340 C.3       1 <0>        -0.1580
     12 C10         3.5472    0.7024   -0.0366 C.2       1 <0>         0.5979
     13 O1          4.1664   -0.3423    0.0431 O.2       1 <0>        -0.5543
     14 N3          4.2092    1.8719   -0.1391 N.am      1 <0>        -0.7137
     15 C11         5.6686    1.8788   -0.2672 C.3       1 <0>         0.1525
     16 H1          6.0039    0.9679   -0.7631 H         1 <0>         0.1138
     17 C12         6.3208    1.9926    1.1262 C.3       1 <0>        -0.1358
     18 C13         7.5563    2.8976    0.8945 C.3       1 <0>        -0.1231
     19 C14         7.0335    3.9336   -0.1314 C.3       1 <0>        -0.1171
     20 C15         6.1216    3.1122   -1.0679 C.3       1 <0>        -0.0089
     21 H2          6.6776    2.7999   -1.9519 H         1 <0>         0.1312
     22 C16         4.9522    3.9137   -1.4639 C.1       1 <0>         0.2011
     23 N4          4.0497    4.5322   -1.7696 N.1       1 <0>        -0.4144
     24 H3         -0.9537    1.9299    0.0268 H         1 <0>         0.1500
     25 H4          1.5673    2.8271    0.0067 H         1 <0>         0.1457
     26 H5         -0.8765   -0.6872   -0.0063 H         1 <0>         0.1696
     27 H6          2.8320   -1.8368    0.0321 H         1 <0>         0.1470
     28 H7          0.2273   -2.4191   -1.4530 H         1 <0>         0.0948
     29 H8          1.7863   -1.9818   -2.1943 H         1 <0>         0.1189
     30 H9          1.4252   -4.4348   -2.2622 H         1 <0>         0.1415
     31 H10         2.8162   -4.0213   -1.2324 H         1 <0>         0.1373
     32 H11         0.0939   -4.5334   -0.2657 H         1 <0>         0.4286
     33 H12         1.1298   -4.5934    1.9002 H         1 <0>         0.1419
     34 H13         2.6499   -4.1106    1.1112 H         1 <0>         0.1373
     35 H14         1.4836   -2.1443    2.0699 H         1 <0>         0.1205
     36 H15         0.0471   -2.5158    1.0853 H         1 <0>         0.0951
     37 H16         3.7194    2.7091   -0.1280 H         1 <0>         0.4043
     38 H17         5.6335    2.4588    1.8322 H         1 <0>         0.0757
     39 H18         6.6292    1.0105    1.4845 H         1 <0>         0.0817
     40 H19         7.8550    3.3882    1.8209 H         1 <0>         0.0819
     41 H20         8.3829    2.3232    0.4764 H         1 <0>         0.0806
     42 H21         6.4613    4.7132    0.3714 H         1 <0>         0.0785
     43 H22         7.8620    4.3679   -0.6910 H         1 <0>         0.0895
     44 H23         1.3330   -5.6167   -0.2191 H         1 <0>         0.4361
@<TRIPOS>BOND
     1    1    5 2
     2    1    2 1
     3    1   24 1
     4    2    3 2
     5    2   25 1
     6    3    4 1
     7    3   12 1
     8    4    5 1
     9    4    6 1
    10    5   26 1
    11    6   11 1
    12    6    7 1
    13    6   27 1
    14    7    8 1
    15    7   28 1
    16    7   29 1
    17    8    9 1
    18    8   30 1
    19    8   31 1
    20    9   10 1
    21    9   32 1
    22    9   44 1
    23   10   11 1
    24   10   33 1
    25   10   34 1
    26   11   35 1
    27   11   36 1
    28   12   13 2
    29   12   14 am
    30   14   15 1
    31   14   37 1
    32   15   16 1
    33   15   20 1
    34   15   17 1
    35   17   18 1
    36   17   38 1
    37   17   39 1
    38   18   19 1
    39   18   40 1
    40   18   41 1
    41   19   20 1
    42   19   42 1
    43   19   43 1
    44   20   21 1
    45   20   22 1
    46   22   23 3
@<TRIPOS>MOLECULE
ZINC67541287
   42    44     0     0     0
SMALL
USER_CHARGES

@<TRIPOS>ATOM
      1 C1         -0.0184    1.5028    0.0103 C.3       1 <0>        -0.1180
      2 C2          0.0021   -0.0041    0.0020 C.ar      1 <0>        -0.0956
      3 C3          0.0058   -0.6909   -1.2008 C.ar      1 <0>        -0.0540
      4 C4          0.0256   -2.0683   -1.2135 C.ar      1 <0>        -0.1666
      5 C5          0.0486   -2.7908   -0.0288 C.ar      1 <0>         0.1108
      6 C6          0.0400   -2.0928    1.1889 C.ar      1 <0>        -0.0461
      7 C7          0.0228   -0.7011    1.1925 C.ar      1 <0>        -0.0434
      8 C8          0.0550   -2.8374    2.4704 C.ar      1 <0>         0.1733
      9 C9          0.0834   -4.2310    2.4680 C.ar      1 <0>        -0.0212
     10 N1          0.0962   -4.8941    3.6100 N.ar      1 <0>        -0.4004
     11 C10         0.0828   -4.2409    4.7573 C.ar      1 <0>        -0.0089
     12 C11         0.0544   -2.8480    4.7687 C.ar      1 <0>         0.3693
     13 N2          0.0469   -2.1768    3.6253 N.ar      1 <0>        -0.4981
     14 N3          0.0394   -2.1625    5.9778 N.pl3     1 <0>        -0.6030
     15 C12         0.1638   -2.8982    7.2385 C.3       1 <0>         0.0886
     16 C13        -0.1009   -0.7043    5.9914 C.3       1 <0>         0.0913
     17 O1          0.0883   -4.1294   -0.2674 O.3       1 <0>        -0.3070
     18 C14        -0.3514   -4.3839   -1.6125 C.3       1 <0>         0.0431
     19 H1         -1.4285   -4.5488   -1.6421 H         1 <0>         0.1154
     20 C15         0.0231   -3.0752   -2.3477 C.3       1 <0>        -0.0943
     21 C16         0.3946   -5.5786   -2.2098 C.3       1 <0>         0.0004
     22 N4          0.0185   -6.8015   -1.4879 N.4       1 <0>        -0.6375
     23 H2          1.0042    1.8801    0.0026 H         1 <0>         0.0779
     24 H3         -0.5455    1.8639   -0.8728 H         1 <0>         0.0728
     25 H4         -0.5286    1.8543    0.9071 H         1 <0>         0.0737
     26 H5         -0.0074   -0.1445   -2.1323 H         1 <0>         0.1354
     27 H6          0.0212   -0.1652    2.1301 H         1 <0>         0.1485
     28 H7          0.0945   -4.7689    1.5315 H         1 <0>         0.1675
     29 H8          0.0934   -4.7874    5.6888 H         1 <0>         0.1679
     30 H9          1.1113   -3.4368    7.2529 H         1 <0>         0.0641
     31 H10         0.1314   -2.1975    8.0728 H         1 <0>         0.0883
     32 H11        -0.6588   -3.6078    7.3278 H         1 <0>         0.0644
     33 H12        -1.1577   -0.4414    6.0380 H         1 <0>         0.0546
     34 H13         0.4134   -0.2980    6.8623 H         1 <0>         0.0726
     35 H14         0.3372   -0.2887    5.0840 H         1 <0>         0.0792
     36 H15        -0.7285   -2.8191   -3.0944 H         1 <0>         0.1086
     37 H16         1.0109   -3.1527   -2.8020 H         1 <0>         0.1035
     38 H17         0.1308   -5.6824   -3.2623 H         1 <0>         0.1558
     39 H18         1.4689   -5.4187   -2.1185 H         1 <0>         0.1461
     40 H19         0.2626   -6.7055   -0.5136 H         1 <0>         0.4423
     41 H20        -0.9760   -6.9495   -1.5724 H         1 <0>         0.4369
     42 H21         0.5105   -7.5894   -1.8819 H         1 <0>         0.4419
@<TRIPOS>BOND
     1    1    2 1
     2    1   23 1
     3    1   24 1
     4    1   25 1
     5    2    7 ar
     6    2    3 ar
     7    3    4 ar
     8    3   26 1
     9    4   20 1
    10    4    5 ar
    11    5    6 ar
    12    5   17 1
    13    6    7 ar
    14    6    8 1
    15    7   27 1
    16    8   13 ar
    17    8    9 ar
    18    9   10 ar
    19    9   28 1
    20   10   11 ar
    21   11   12 ar
    22   11   29 1
    23   12   13 ar
    24   12   14 1
    25   14   15 1
    26   14   16 1
    27   15   30 1
    28   15   31 1
    29   15   32 1
    30   16   33 1
    31   16   34 1
    32   16   35 1
    33   17   18 1
    34   18   19 1
    35   18   20 1
    36   18   21 1
    37   20   36 1
    38   20   37 1
    39   21   22 1
    40   21   38 1
    41   21   39 1
    42   22   40 1
    43   22   41 1
    44   22   42 1
@<TRIPOS>MOLECULE
ZINC17080290
   47    49     0     0     0
SMALL
USER_CHARGES
(1R,4S,5S,6S)-6-[[[2-(4-chloro-3,5-dimethyl-phenoxy)acetyl]amino]carbamoyl]bicyclo[2.2.1]hept-2-ene-5-carboxylic acid
@<TRIPOS>ATOM
      1 C1         -1.8468    4.3168  -12.0269 C.3       1 <0>        -0.1210
      2 C2         -2.3768    4.8152  -10.7072 C.ar      1 <0>        -0.0298
      3 C3         -1.8569    4.3249   -9.5249 C.ar      1 <0>        -0.1440
      4 C4         -2.3449    4.7843   -8.3104 C.ar      1 <0>         0.1473
      5 C5         -3.3580    5.7316   -8.2856 C.ar      1 <0>        -0.2092
      6 C6         -3.8720    6.2230   -9.4699 C.ar      1 <0>        -0.0296
      7 C7         -3.3837    5.7639  -10.6804 C.ar      1 <0>        -0.0790
      8 Cl1        -4.0355    6.3785  -12.1674 Cl        1 <0>        -0.0682
      9 C8         -4.9690    7.2560   -9.4435 C.3       1 <0>        -0.1218
     10 O1         -1.8349    4.3028   -7.1461 O.3       1 <0>        -0.2819
     11 C9         -2.3851    4.8209   -5.9334 C.3       1 <0>         0.0535
     12 C10        -1.7015    4.1756   -4.7556 C.2       1 <0>         0.5092
     13 O2         -0.8290    3.3530   -4.9368 O.2       1 <0>        -0.5065
     14 N1         -2.0597    4.5127   -3.5007 N.am      1 <0>        -0.5186
     15 N2         -1.4241    3.9128   -2.4058 N.am      1 <0>        -0.5216
     16 C11        -1.7823    4.2498   -1.1510 C.2       1 <0>         0.5356
     17 O3         -2.6549    5.0725   -0.9697 O.2       1 <0>        -0.5445
     18 C12        -1.0987    3.6045    0.0269 C.3       1 <0>        -0.0989
     19 H1         -0.0323    3.8301    0.0230 H         1 <0>         0.1300
     20 C13        -1.7539    4.0715    1.3656 C.3       1 <0>        -0.0499
     21 H2         -1.4809    5.0672    1.7152 H         1 <0>         0.1004
     22 C14        -1.3952    2.8558    2.2964 C.3       1 <0>        -0.1189
     23 C15        -2.0976    1.8101    1.3549 C.3       1 <0>        -0.0517
     24 H3         -2.1331    0.7751    1.6950 H         1 <0>         0.1054
     25 C16        -1.3313    2.0738    0.0196 C.3       1 <0>        -0.1190
     26 H4         -1.9387    1.7825   -0.8373 H         1 <0>         0.0741
     27 C17        -0.0161    1.3381    0.0094 C.2       1 <0>         0.4708
     28 O4          1.0219    1.9564    0.0028 O.co2     1 <0>        -0.6337
     29 C18        -3.4489    2.5067    1.1534 C.2       1 <0>        -0.1845
     30 C19        -3.2509    3.8097    1.1595 C.2       1 <0>        -0.1424
     31 H5         -2.4235    3.4484  -12.3455 H         1 <0>         0.0796
     32 H6         -1.9340    5.1051  -12.7745 H         1 <0>         0.0759
     33 H7         -0.7994    4.0362  -11.9152 H         1 <0>         0.0750
     34 H8         -1.0713    3.5841   -9.5463 H         1 <0>         0.1432
     35 H9         -3.7419    6.0875   -7.3409 H         1 <0>         0.1380
     36 H10        -5.9380    6.7569   -9.4376 H         1 <0>         0.0787
     37 H11        -4.8701    7.8682   -8.5471 H         1 <0>         0.0724
     38 H12        -4.8923    7.8901  -10.3268 H         1 <0>         0.0759
     39 H13        -3.4528    4.6044   -5.8972 H         1 <0>         0.1008
     40 H14        -2.2317    5.8994   -5.8964 H         1 <0>         0.1008
     41 H15        -2.7575    5.1706   -3.3558 H         1 <0>         0.4297
     42 H16        -0.7263    3.2548   -2.5508 H         1 <0>         0.4392
     43 H17        -0.3204    2.6921    2.3738 H         1 <0>         0.0820
     44 H18        -1.8721    2.9237    3.2742 H         1 <0>         0.0731
     45 H19        -4.4013    2.0132    1.0277 H         1 <0>         0.1196
     46 H20        -4.0135    4.5650    1.0397 H         1 <0>         0.1232
     47 O5          0.0021   -0.0041    0.0020 O.co2     1 <0>        -0.7589
@<TRIPOS>BOND
     1    1    2 1
     2    1   31 1
     3    1   32 1
     4    1   33 1
     5    2    7 ar
     6    2    3 ar
     7    3    4 ar
     8    3   34 1
     9    4    5 ar
    10    4   10 1
    11    5    6 ar
    12    5   35 1
    13    6    7 ar
    14    6    9 1
    15    7    8 1
    16    9   36 1
    17    9   37 1
    18    9   38 1
    19   10   11 1
    20   11   12 1
    21   11   39 1
    22   11   40 1
    23   12   13 2
    24   12   14 am
    25   14   15 1
    26   14   41 1
    27   15   16 am
    28   15   42 1
    29   16   17 2
    30   16   18 1
    31   18   19 1
    32   18   25 1
    33   18   20 1
    34   20   21 1
    35   20   30 1
    36   20   22 1
    37   22   23 1
    38   22   43 1
    39   22   44 1
    40   23   24 1
    41   23   25 1
    42   23   29 1
    43   25   26 1
    44   25   27 1
    45   27   28 2
    46   27   47 1
    47   29   30 2
    48   29   45 1
    49   30   46 1
@<TRIPOS>MOLECULE
ZINC43218814
   44    47     0     0     0
SMALL
USER_CHARGES

@<TRIPOS>ATOM
      1 C1         -0.0167    1.3781    0.0096 C.ar      1 <0>        -0.1192
      2 C2          1.1709    2.0855    0.0021 C.ar      1 <0>        -0.1086
      3 C3          2.3773    1.4107   -0.0130 C.ar      1 <0>        -0.1350
      4 C4          2.3960    0.0285   -0.0201 C.ar      1 <0>        -0.0671
      5 C5          1.2084   -0.6789   -0.0117 C.ar      1 <0>        -0.0818
      6 C6          0.0021   -0.0041    0.0020 C.ar      1 <0>        -0.1085
      7 C7          3.7112   -0.7071   -0.0376 C.3       1 <0>         0.0441
      8 C8          3.5813   -2.0211   -0.8353 C.3       1 <0>        -0.1698
      9 H1          2.5725   -2.4332   -0.8104 H         1 <0>         0.1321
     10 C9          4.0583   -1.6644   -2.2703 C.3       1 <0>        -0.1602
     11 H2          3.3148   -1.8903   -3.0346 H         1 <0>         0.1306
     12 C10         4.4126   -0.1642   -2.2071 C.3       1 <0>         0.0988
     13 H3          3.5658    0.4401   -2.5325 H         1 <0>         0.1453
     14 N1          4.7347    0.0804   -0.7708 N.4       1 <0>        -0.4934
     15 C11         5.6215    0.1261   -3.0588 C.ar      1 <0>        -0.0690
     16 C12         6.8881   -0.1517   -2.5782 C.ar      1 <0>        -0.0877
     17 C13         7.9990    0.1134   -3.3571 C.ar      1 <0>        -0.0575
     18 C14         7.8463    0.6573   -4.6180 C.ar      1 <0>        -0.1712
     19 C15         6.5770    0.9369   -5.1024 C.ar      1 <0>         0.1019
     20 C16         5.4632    0.6642   -4.3210 C.ar      1 <0>        -0.0888
     21 O1          6.4241    1.4718   -6.3423 O.3       1 <0>        -0.3103
     22 C17         7.6145    1.7206   -7.0927 C.3       1 <0>         0.6040
     23 F1          8.3048    0.5190   -7.2842 F         1 <0>        -0.1619
     24 F2          7.2767    2.2675   -8.3353 F         1 <0>        -0.1339
     25 F3          8.4274    2.6191   -6.3933 F         1 <0>        -0.1667
     26 C18         5.3216   -2.4829   -2.4206 C.2       1 <0>         0.4605
     27 O2          6.1004   -2.5059   -3.5129 O.3       1 <0>        -0.6238
     28 N2          5.5393   -3.1602   -1.3338 N.2       1 <0>        -0.6857
     29 C19         4.6298   -3.0006   -0.3526 C.2       1 <0>         0.5031
     30 O3          4.6412   -3.5413    0.7344 O.2       1 <0>        -0.4630
     31 C20         4.1732   -0.9877    1.3691 C.2       1 <0>         0.5164
     32 O4          3.4883   -1.6714    2.1108 O.co2     1 <0>        -0.6062
     33 O5          5.2319   -0.5311    1.7656 O.co2     1 <0>        -0.6761
     34 H4         -0.9591    1.9053    0.0259 H         1 <0>         0.1244
     35 H5          1.1563    3.1654    0.0076 H         1 <0>         0.1260
     36 H6          3.3051    1.9634   -0.0196 H         1 <0>         0.1136
     37 H7          1.2231   -1.7588   -0.0176 H         1 <0>         0.1345
     38 H8         -0.9258   -0.5567    0.0082 H         1 <0>         0.1282
     39 H9          4.6452    1.0622   -0.5562 H         1 <0>         0.4145
     40 H10         7.0095   -0.5762   -1.5926 H         1 <0>         0.1235
     41 H11         8.9871   -0.1045   -2.9795 H         1 <0>         0.1376
     42 H12         8.7146    0.8649   -5.2258 H         1 <0>         0.1335
     43 H13         4.4736    0.8765   -4.6978 H         1 <0>         0.1399
     44 H14         5.6615   -0.2487   -0.5455 H         1 <0>         0.4328
@<TRIPOS>BOND
     1    1    6 ar
     2    1    2 ar
     3    1   34 1
     4    2    3 ar
     5    2   35 1
     6    3    4 ar
     7    3   36 1
     8    4    5 ar
     9    4    7 1
    10    5    6 ar
    11    5   37 1
    12    6   38 1
    13    7   14 1
    14    7    8 1
    15    7   31 1
    16    8    9 1
    17    8   29 1
    18    8   10 1
    19   10   11 1
    20   10   12 1
    21   10   26 1
    22   12   13 1
    23   12   14 1
    24   12   15 1
    25   14   39 1
    26   14   44 1
    27   15   20 ar
    28   15   16 ar
    29   16   17 ar
    30   16   40 1
    31   17   18 ar
    32   17   41 1
    33   18   19 ar
    34   18   42 1
    35   19   20 ar
    36   19   21 1
    37   20   43 1
    38   21   22 1
    39   22   23 1
    40   22   24 1
    41   22   25 1
    42   26   27 1
    43   26   28 2
    44   28   29 1
    45   29   30 2
    46   31   32 2
    47   31   33 1
@<TRIPOS>MOLECULE
ZINC40312449
   45    48     0     0     0
SMALL
USER_CHARGES

@<TRIPOS>ATOM
      1 C1         -0.0173    1.4248    0.0099 C.3       1 <0>         0.0238
      2 O1          0.0021   -0.0041    0.0020 O.3       1 <0>        -0.3078
      3 C2          0.6062   -0.6075   -1.0564 C.ar      1 <0>         0.1007
      4 C3          1.1729    0.1590   -2.0621 C.ar      1 <0>        -0.1902
      5 C4          1.7870   -0.4560   -3.1371 C.ar      1 <0>        -0.0458
      6 C5          1.8372   -1.8356   -3.2121 C.ar      1 <0>        -0.1206
      7 C6          1.2734   -2.6062   -2.2124 C.ar      1 <0>        -0.0994
      8 C7          0.6617   -1.9961   -1.1290 C.ar      1 <0>         0.0721
      9 O2          0.1119   -2.7526   -0.1417 O.3       1 <0>        -0.4869
     10 C8          2.4028    0.3792   -4.2300 C.3       1 <0>         0.0388
     11 H1          2.2676    1.4367   -4.0030 H         1 <0>         0.0941
     12 C9          3.8968    0.0632   -4.3391 C.3       1 <0>        -0.1255
     13 C10         4.1341   -1.2549   -5.0185 C.2       1 <0>         0.5166
     14 O3          5.0487   -1.9561   -4.6399 O.2       1 <0>        -0.5442
     15 N1          3.3579   -1.6833   -6.0394 N.am      1 <0>        -0.6235
     16 C11         2.2290   -0.9209   -6.3653 C.2       1 <0>         0.1151
     17 C12         1.7437    0.0553   -5.5481 C.2       1 <0>        -0.0607
     18 N2          0.6462    0.6149   -6.1274 N.pl3     1 <0>        -0.3801
     19 C13         0.3934    0.0293   -7.3175 C.2       1 <0>         0.0400
     20 C14         1.3597   -0.9569   -7.5352 C.2       1 <0>        -0.1972
     21 C15         1.4767   -1.8426   -8.6981 C.2       1 <0>         0.5485
     22 O4          0.6686   -1.7604   -9.6139 O.co2     1 <0>        -0.6927
     23 O5          2.3824   -2.6642   -8.7530 O.co2     1 <0>        -0.6917
     24 C16        -0.1135    1.6511   -5.5680 C.ar      1 <0>         0.1350
     25 C17        -0.5554    1.5590   -4.2550 C.ar      1 <0>        -0.1284
     26 C18        -1.3040    2.5819   -3.7064 C.ar      1 <0>        -0.1078
     27 C19        -1.6138    3.6967   -4.4636 C.ar      1 <0>        -0.1243
     28 C20        -1.1751    3.7914   -5.7715 C.ar      1 <0>        -0.1029
     29 C21        -0.4209    2.7745   -6.3238 C.ar      1 <0>        -0.1191
     30 H2          1.0053    1.8021    0.0021 H         1 <0>         0.0557
     31 H3         -0.5445    1.7859   -0.8732 H         1 <0>         0.0543
     32 H4         -0.5275    1.7763    0.9067 H         1 <0>         0.0993
     33 H5          1.1344    1.2368   -2.0063 H         1 <0>         0.1335
     34 H6          2.3175   -2.3124   -4.0537 H         1 <0>         0.1323
     35 H7          1.3136   -3.6837   -2.2735 H         1 <0>         0.1372
     36 H8         -0.8162   -2.9794   -0.2906 H         1 <0>         0.3842
     37 H9          4.3865    0.8516   -4.9107 H         1 <0>         0.1064
     38 H10         4.3277    0.0306   -3.3384 H         1 <0>         0.1090
     39 H11         3.5758   -2.4913   -6.5299 H         1 <0>         0.4280
     40 H12        -0.4167    0.2808   -7.9859 H         1 <0>         0.1760
     41 H13        -0.3143    0.6882   -3.6633 H         1 <0>         0.1363
     42 H14        -1.6480    2.5108   -2.6851 H         1 <0>         0.1246
     43 H15        -2.1998    4.4950   -4.0327 H         1 <0>         0.1250
     44 H16        -1.4186    4.6633   -6.3604 H         1 <0>         0.1294
     45 H17        -0.0748    2.8510   -7.3439 H         1 <0>         0.1328
@<TRIPOS>BOND
     1    1    2 1
     2    1   30 1
     3    1   31 1
     4    1   32 1
     5    2    3 1
     6    3    8 ar
     7    3    4 ar
     8    4    5 ar
     9    4   33 1
    10    5    6 ar
    11    5   10 1
    12    6    7 ar
    13    6   34 1
    14    7    8 ar
    15    7   35 1
    16    8    9 1
    17    9   36 1
    18   10   11 1
    19   10   17 1
    20   10   12 1
    21   12   13 1
    22   12   37 1
    23   12   38 1
    24   13   14 2
    25   13   15 am
    26   15   16 1
    27   15   39 1
    28   16   20 1
    29   16   17 2
    30   17   18 1
    31   18   19 1
    32   18   24 1
    33   19   20 2
    34   19   40 1
    35   20   21 1
    36   21   22 2
    37   21   23 1
    38   24   29 ar
    39   24   25 ar
    40   25   26 ar
    41   25   41 1
    42   26   27 ar
    43   26   42 1
    44   27   28 ar
    45   27   43 1
    46   28   29 ar
    47   28   44 1
    48   29   45 1
@<TRIPOS>MOLECULE
ZINC13119381
   33    35     0     0     0
SMALL
USER_CHARGES

@<TRIPOS>ATOM
      1 C1         -0.0184    1.5028    0.0103 C.3       1 <0>        -0.0790
      2 C2          0.0021   -0.0041    0.0020 C.2       1 <0>         0.0852
      3 C3          0.0059   -0.7057   -1.1580 C.2       1 <0>        -0.2846
      4 S1          0.0324   -2.3787   -0.5348 S.3       1 <0>         0.2197
      5 C4          0.0358   -2.0148    1.1084 C.2       1 <0>         0.2488
      6 N1          0.0227   -0.6995    1.1240 N.2       1 <0>        -0.5523
      7 N2          0.0531   -2.8912    2.1872 N.am      1 <0>        -0.6061
      8 C5          0.0706   -4.2219    1.9741 C.2       1 <0>         0.5421
      9 O1          0.0712   -4.6547    0.8411 O.2       1 <0>        -0.4788
     10 C6          0.0895   -5.1722    3.1436 C.3       1 <0>        -0.1734
     11 S2          0.1103   -6.8806    2.5343 S.3       1 <0>         0.0930
     12 C7          0.1310   -7.8562    4.0015 C.2       1 <0>        -0.2197
     13 C8          0.1564   -9.2425    4.0977 C.2       1 <0>        -0.0761
     14 C9          0.1700   -9.8206    5.4308 C.2       1 <0>         0.1883
     15 C10         0.1550   -8.8671    6.4456 C.2       1 <0>        -0.2312
     16 S3          0.1316   -7.3162    5.5898 S.3       1 <0>         0.2868
     17 C11         0.1654   -9.2287    7.7931 C.2       1 <0>         0.3526
     18 C12         0.1914  -10.5764    8.1234 C.2       1 <0>        -0.4383
     19 C13         0.2062  -11.5232    7.0970 C.2       1 <0>         0.5375
     20 N3          0.1956  -11.1582    5.8067 N.am      1 <0>        -0.6215
     21 O2          0.2291  -12.7110    7.3811 O.2       1 <0>        -0.6092
     22 O3          0.1509   -8.2812    8.7617 O.3       1 <0>        -0.6840
     23 C14         0.1682  -10.0691    2.9285 C.1       1 <0>         0.2708
     24 N4          0.1776  -10.7248    2.0009 N.1       1 <0>        -0.4197
     25 H1          1.0042    1.8801    0.0026 H         1 <0>         0.0744
     26 H2         -0.5455    1.8639   -0.8728 H         1 <0>         0.0753
     27 H3         -0.5286    1.8543    0.9071 H         1 <0>         0.0736
     28 H4         -0.0046   -0.3507   -2.1779 H         1 <0>         0.1944
     29 H5          0.0527   -2.5451    3.0933 H         1 <0>         0.4293
     30 H6          0.9799   -4.9901    3.7453 H         1 <0>         0.1387
     31 H7         -0.7999   -5.0149    3.7539 H         1 <0>         0.1388
     32 H8          0.2004  -10.8879    9.1574 H         1 <0>         0.1297
     33 H9          0.2065  -11.8434    5.1202 H         1 <0>         0.3947
@<TRIPOS>BOND
     1    1    2 1
     2    1   25 1
     3    1   26 1
     4    1   27 1
     5    2    6 1
     6    2    3 2
     7    3    4 1
     8    3   28 1
     9    4    5 1
    10    5    6 2
    11    5    7 1
    12    7    8 am
    13    7   29 1
    14    8    9 2
    15    8   10 1
    16   10   11 1
    17   10   30 1
    18   10   31 1
    19   11   12 1
    20   12   16 1
    21   12   13 2
    22   13   14 1
    23   13   23 1
    24   14   20 1
    25   14   15 2
    26   15   16 1
    27   15   17 1
    28   17   18 2
    29   17   22 1
    30   18   19 1
    31   18   32 1
    32   19   20 am
    33   19   21 2
    34   20   33 1
    35   23   24 3
@<TRIPOS>MOLECULE
ZINC66587968
   38    39     0     0     0
SMALL
USER_CHARGES

@<TRIPOS>ATOM
      1 C1         -0.0187    1.5258    0.0104 C.3       1 <0>        -0.1479
      2 C2          0.0021   -0.0041    0.0020 C.3       1 <0>         0.0513
      3 O1          0.6709   -0.4649   -1.1737 O.3       1 <0>        -0.2885
      4 C3          0.7769   -1.8116   -1.3363 C.ar      1 <0>         0.0661
      5 C4          0.2438   -2.6687   -0.3883 C.ar      1 <0>        -0.1489
      6 C5          0.3521   -4.0374   -0.5536 C.ar      1 <0>        -0.2190
      7 C6          0.9931   -4.5550   -1.6663 C.ar      1 <0>         0.1180
      8 C7          1.5278   -3.7041   -2.6180 C.ar      1 <0>        -0.2802
      9 C8          1.4167   -2.3304   -2.4596 C.ar      1 <0>         0.2869
     10 N1          1.9519   -1.4678   -3.4231 N.2       1 <0>        -1.0577
     11 S1          2.7121   -2.0867   -4.7577 S.o2      1 <0>         2.5900
     12 O2          3.8857   -2.7380   -4.2911 O.2       1 <0>        -1.0159
     13 O3          1.7171   -2.7607   -5.5159 O.2       1 <0>        -1.0101
     14 C9          3.2483   -0.7202   -5.7323 C.ar      1 <0>        -0.6017
     15 C10         4.5985   -0.4967   -5.9262 C.ar      1 <0>        -0.0231
     16 C11         5.0194    0.5751   -6.6907 C.ar      1 <0>        -0.0571
     17 C12         4.0905    1.4250   -7.2624 C.ar      1 <0>        -0.6193
     18 C13         2.7403    1.2033   -7.0704 C.ar      1 <0>        -0.0802
     19 C14         2.3173    0.1267   -6.3089 C.ar      1 <0>         0.1856
     20 F1          0.9972   -0.0937   -6.1244 F         1 <0>        -0.1053
     21 S2          4.6290    2.7915   -8.2357 S.o2      1 <0>         2.7064
     22 O4          3.5796    3.7492   -8.2068 O.2       1 <0>        -0.9574
     23 O5          5.9505    3.0964   -7.8118 O.2       1 <0>        -0.9571
     24 N2          4.7441    2.2627   -9.8008 N.pl3     1 <0>        -1.2487
     25 F2          1.0972   -5.8928   -1.8231 F         1 <0>        -0.1551
     26 H1          1.0039    1.9031    0.0027 H         1 <0>         0.0631
     27 H2         -0.5459    1.8868   -0.8726 H         1 <0>         0.0634
     28 H3         -0.5289    1.8773    0.9072 H         1 <0>         0.0676
     29 H4          0.5293   -0.3651    0.8851 H         1 <0>         0.0507
     30 H5         -1.0205   -0.3814    0.0098 H         1 <0>         0.0508
     31 H6         -0.2565   -2.2680    0.4809 H         1 <0>         0.1228
     32 H7         -0.0641   -4.7041    0.1872 H         1 <0>         0.1187
     33 H8          2.0275   -4.1094   -3.4854 H         1 <0>         0.1150
     34 H9          5.3249   -1.1597   -5.4798 H         1 <0>         0.1608
     35 H10         6.0745    0.7492   -6.8414 H         1 <0>         0.1553
     36 H11         2.0149    1.8675   -7.5168 H         1 <0>         0.1605
     37 H12         4.5272    1.3429  -10.0191 H         1 <0>         0.4188
     38 H13         5.0285    2.8729  -10.4992 H         1 <0>         0.4212
@<TRIPOS>BOND
     1    1    2 1
     2    1   26 1
     3    1   27 1
     4    1   28 1
     5    2    3 1
     6    2   29 1
     7    2   30 1
     8    3    4 1
     9    4    9 ar
    10    4    5 ar
    11    5    6 ar
    12    5   31 1
    13    6    7 ar
    14    6   32 1
    15    7    8 ar
    16    7   25 1
    17    8    9 ar
    18    8   33 1
    19    9   10 1
    20   10   11 1
    21   11   12 2
    22   11   13 2
    23   11   14 1
    24   14   19 ar
    25   14   15 ar
    26   15   16 ar
    27   15   34 1
    28   16   17 ar
    29   16   35 1
    30   17   18 ar
    31   17   21 1
    32   18   19 ar
    33   18   36 1
    34   19   20 1
    35   21   22 2
    36   21   23 2
    37   21   24 1
    38   24   37 1
    39   24   38 1
@<TRIPOS>MOLECULE
ZINC06766113
   54    57     0     0     0
SMALL
USER_CHARGES
N-(3,4-dimethylphenyl)-3-[5-(4-fluorophenyl)-1,4-diazabicyclo[4.3.0]nona-6,8-dien-4-yl]-3-oxo-propanamide
@<TRIPOS>ATOM
      1 C1         -6.6038   -4.2165    0.8644 C.3       1 <0>        -0.1171
      2 C2         -5.2261   -3.6285    0.6998 C.ar      1 <0>        -0.1010
      3 C3         -4.9622   -2.3501    1.1569 C.ar      1 <0>        -0.0961
      4 C4         -3.6994   -1.8104    1.0123 C.ar      1 <0>        -0.1216
      5 C5         -2.6966   -2.5487    0.3970 C.ar      1 <0>         0.1447
      6 C6         -2.9646   -3.8320   -0.0604 C.ar      1 <0>        -0.1432
      7 C7         -4.2284   -4.3683    0.0924 C.ar      1 <0>        -0.0683
      8 C8         -4.5201   -5.7610   -0.4038 C.3       1 <0>        -0.1178
      9 N1         -1.4175   -2.0026    0.2437 N.am      1 <0>        -0.6764
     10 C9         -1.2702   -0.6786    0.0391 C.2       1 <0>         0.5105
     11 O1         -2.2474    0.0252   -0.1050 O.2       1 <0>        -0.4680
     12 C10         0.1088   -0.0727   -0.0106 C.3       1 <0>        -0.1648
     13 C11        -0.0028    1.4111   -0.2491 C.2       1 <0>         0.5225
     14 O2         -1.0944    1.9251   -0.3721 O.2       1 <0>        -0.4780
     15 N2          1.1106    2.1661   -0.3313 N.am      1 <0>        -0.6154
     16 C12         2.4452    1.5645   -0.1914 C.3       1 <0>         0.0833
     17 C13         3.2122    1.7221   -1.5083 C.3       1 <0>         0.0883
     18 N3          3.0644    3.0993   -1.9919 N.pl3     1 <0>        -0.4465
     19 C14         3.8500    3.7345   -2.9037 C.2       1 <0>        -0.0043
     20 C15         3.3706    4.9841   -3.0777 C.2       1 <0>        -0.1973
     21 C16         2.2464    5.1269   -2.2379 C.2       1 <0>        -0.1708
     22 C17         2.0855    3.9649   -1.5859 C.2       1 <0>         0.0032
     23 C18         1.0269    3.6189   -0.5702 C.3       1 <0>         0.2627
     24 H1          0.0414    3.8758   -0.9586 H         1 <0>         0.1239
     25 C19         1.2867    4.3668    0.7121 C.ar      1 <0>        -0.1043
     26 C20         0.2971    5.1605    1.2614 C.ar      1 <0>        -0.0661
     27 C21         0.5324    5.8424    2.4403 C.ar      1 <0>        -0.1514
     28 C22         1.7638    5.7396    3.0649 C.ar      1 <0>         0.1059
     29 C23         2.7561    4.9488    2.5108 C.ar      1 <0>        -0.1552
     30 C24         2.5165    4.2630    1.3351 C.ar      1 <0>        -0.0723
     31 F1          1.9970    6.4107    4.2140 F         1 <0>        -0.1377
     32 H2         -6.6634   -4.7409    1.8181 H         1 <0>         0.0702
     33 H3         -7.3449   -3.4175    0.8423 H         1 <0>         0.0657
     34 H4         -6.7997   -4.9163    0.0520 H         1 <0>         0.0700
     35 H5         -5.7435   -1.7750    1.6315 H         1 <0>         0.1258
     36 H6         -3.4928   -0.8138    1.3734 H         1 <0>         0.1336
     37 H7         -2.1857   -4.4104   -0.5349 H         1 <0>         0.1244
     38 H8         -4.3175   -6.4796    0.3904 H         1 <0>         0.0720
     39 H9         -5.5675   -5.8301   -0.6977 H         1 <0>         0.0726
     40 H10        -3.8864   -5.9808   -1.2630 H         1 <0>         0.0653
     41 H11        -0.6369   -2.5768    0.2846 H         1 <0>         0.4089
     42 H12         0.6772   -0.5292   -0.8208 H         1 <0>         0.1251
     43 H13         0.6184   -0.2512    0.9363 H         1 <0>         0.1277
     44 H14         2.9888    2.0669    0.6087 H         1 <0>         0.0912
     45 H15         2.3439    0.5055    0.0462 H         1 <0>         0.1080
     46 H16         4.2677    1.5056   -1.3431 H         1 <0>         0.1016
     47 H17         2.8103    1.0305   -2.2487 H         1 <0>         0.0853
     48 H18         4.7098    3.3115   -3.4021 H         1 <0>         0.1633
     49 H19         3.7740    5.7368   -3.7389 H         1 <0>         0.1387
     50 H20         1.6296    6.0078   -2.1381 H         1 <0>         0.1376
     51 H21        -0.6616    5.2446    0.7713 H         1 <0>         0.1378
     52 H22        -0.2425    6.4586    2.8718 H         1 <0>         0.1393
     53 H23         3.7168    4.8676    2.9974 H         1 <0>         0.1363
     54 H24         3.2903    3.6462    0.9027 H         1 <0>         0.1283
@<TRIPOS>BOND
     1    1    2 1
     2    1   32 1
     3    1   33 1
     4    1   34 1
     5    2    7 ar
     6    2    3 ar
     7    3    4 ar
     8    3   35 1
     9    4    5 ar
    10    4   36 1
    11    5    6 ar
    12    5    9 1
    13    6    7 ar
    14    6   37 1
    15    7    8 1
    16    8   38 1
    17    8   39 1
    18    8   40 1
    19    9   10 am
    20    9   41 1
    21   10   11 2
    22   10   12 1
    23   12   13 1
    24   12   42 1
    25   12   43 1
    26   13   14 2
    27   13   15 am
    28   15   23 1
    29   15   16 1
    30   16   17 1
    31   16   44 1
    32   16   45 1
    33   17   18 1
    34   17   46 1
    35   17   47 1
    36   18   22 1
    37   18   19 1
    38   19   20 2
    39   19   48 1
    40   20   21 1
    41   20   49 1
    42   21   22 2
    43   21   50 1
    44   22   23 1
    45   23   24 1
    46   23   25 1
    47   25   30 ar
    48   25   26 ar
    49   26   27 ar
    50   26   51 1
    51   27   28 ar
    52   27   52 1
    53   28   29 ar
    54   28   31 1
    55   29   30 ar
    56   29   53 1
    57   30   54 1
@<TRIPOS>MOLECULE
ZINC13958183
   46    50     0     0     0
SMALL
USER_CHARGES
N-[4-(1-adamantyl)thiazol-2-yl]-4-bromo-2-methyl-pyrazole-3-carboxamide
@<TRIPOS>ATOM
      1 C1         -2.4566   -0.7393    0.7180 C.3       1 <0>         0.0771
      2 N1         -1.0678   -0.9705    0.3129 N.pl3     1 <0>        -0.2591
      3 C2          0.0315   -0.7061    1.0816 C.2       1 <0>        -0.0034
      4 C3          1.1311   -1.0701    0.3214 C.2       1 <0>        -0.1545
      5 C4          0.6064   -1.5414   -0.8853 C.2       1 <0>         0.0438
      6 N2         -0.6975   -1.4575   -0.8164 N.2       1 <0>        -0.2588
      7 Br1         2.9536   -0.9548    0.8124 Br        1 <0>         0.0136
      8 C5          0.0442   -0.1474    2.4413 C.2       1 <0>         0.5968
      9 O1          0.1852   -0.8830    3.3999 O.2       1 <0>        -0.4619
     10 N3         -0.1004    1.1798    2.6259 N.am      1 <0>        -0.5969
     11 C6          0.0175    1.7206    3.8996 C.2       1 <0>         0.2725
     12 N4         -0.0895    2.9795    4.2786 N.2       1 <0>        -0.5269
     13 C7          0.0513    3.3266    5.5429 C.2       1 <0>         0.0960
     14 C8          0.3105    2.3570    6.4540 C.2       1 <0>        -0.2524
     15 S1          0.3361    0.9121    5.4030 S.3       1 <0>         0.1590
     16 C9         -0.0725    4.7679    5.9651 C.3       1 <0>         0.0207
     17 C10         1.0638    5.1165    6.9286 C.3       1 <0>        -0.0992
     18 C11         0.9381    6.5799    7.3572 C.3       1 <0>        -0.0849
     19 C12         1.0207    7.4814    6.1238 C.3       1 <0>        -0.1094
     20 C13        -0.1156    7.1328    5.1603 C.3       1 <0>        -0.0894
     21 C14         0.0101    5.6695    4.7317 C.3       1 <0>        -0.0857
     22 C15        -1.4600    7.3460    5.8588 C.3       1 <0>        -0.1086
     23 C16        -1.5426    6.4445    7.0922 C.3       1 <0>        -0.0849
     24 C17        -0.4064    6.7930    8.0557 C.3       1 <0>        -0.1092
     25 C18        -1.4169    4.9811    6.6636 C.3       1 <0>        -0.0961
     26 H1         -2.7286    0.2954    0.5093 H         1 <0>         0.0954
     27 H2         -3.1136   -1.4071    0.1607 H         1 <0>         0.1132
     28 H3         -2.5610   -0.9343    1.7853 H         1 <0>         0.0961
     29 H4          1.1761   -1.9126   -1.7244 H         1 <0>         0.2019
     30 H5         -0.2868    1.7573    1.8691 H         1 <0>         0.4280
     31 H6          0.4574    2.4356    7.5211 H         1 <0>         0.1960
     32 H7          1.0049    4.4742    7.8073 H         1 <0>         0.0652
     33 H8          2.0216    4.9646    6.4310 H         1 <0>         0.0643
     34 H9          1.7476    6.8282    8.0437 H         1 <0>         0.0722
     35 H10         1.9785    7.3295    5.6262 H         1 <0>         0.0613
     36 H11         0.9312    8.5239    6.4292 H         1 <0>         0.0621
     37 H12        -0.0567    7.7751    4.2816 H         1 <0>         0.0698
     38 H13         0.9679    5.5176    4.2341 H         1 <0>         0.0610
     39 H14        -0.7994    5.4211    4.0453 H         1 <0>         0.0689
     40 H15        -1.5495    8.3886    6.1641 H         1 <0>         0.0619
     41 H16        -2.2695    7.0977    5.1724 H         1 <0>         0.0610
     42 H17        -2.5004    6.5963    7.5898 H         1 <0>         0.0714
     43 H18        -0.4652    6.1508    8.9344 H         1 <0>         0.0624
     44 H19        -0.4959    7.8356    8.3611 H         1 <0>         0.0632
     45 H20        -2.2264    4.7328    5.9771 H         1 <0>         0.0626
     46 H21        -1.4757    4.3388    7.5423 H         1 <0>         0.0638
@<TRIPOS>BOND
     1    1    2 1
     2    1   26 1
     3    1   27 1
     4    1   28 1
     5    2    6 1
     6    2    3 1
     7    3    4 2
     8    3    8 1
     9    4    5 1
    10    4    7 1
    11    5    6 2
    12    5   29 1
    13    8    9 2
    14    8   10 am
    15   10   11 1
    16   10   30 1
    17   11   15 1
    18   11   12 2
    19   12   13 1
    20   13   14 2
    21   13   16 1
    22   14   15 1
    23   14   31 1
    24   16   21 1
    25   16   25 1
    26   16   17 1
    27   17   18 1
    28   17   32 1
    29   17   33 1
    30   18   24 1
    31   18   19 1
    32   18   34 1
    33   19   20 1
    34   19   35 1
    35   19   36 1
    36   20   21 1
    37   20   22 1
    38   20   37 1
    39   21   38 1
    40   21   39 1
    41   22   23 1
    42   22   40 1
    43   22   41 1
    44   23   24 1
    45   23   25 1
    46   23   42 1
    47   24   43 1
    48   24   44 1
    49   25   45 1
    50   25   46 1
@<TRIPOS>MOLECULE
ZINC27579373
   39    42     0     0     0
SMALL
USER_CHARGES
5-(benzofuran-2-yl)-4-[(3-bromo-4-methoxy-phenyl)methyl]-1,2,4-triazole-3-thiol
@<TRIPOS>ATOM
      1 C1          1.5665    7.7686   -4.8498 C.3       1 <0>         0.0196
      2 O1          0.5466    6.9487   -4.2757 O.3       1 <0>        -0.2989
      3 C2          0.9159    5.7119   -3.8500 C.ar      1 <0>         0.1733
      4 C3          2.2327    5.2961   -3.9820 C.ar      1 <0>        -0.2097
      5 C4          2.6056    4.0384   -3.5489 C.ar      1 <0>        -0.0386
      6 C5          1.6677    3.1937   -2.9840 C.ar      1 <0>        -0.1640
      7 C6          0.3535    3.6031   -2.8558 C.ar      1 <0>        -0.0128
      8 C7         -0.0239    4.8626   -3.2828 C.ar      1 <0>        -0.1315
      9 Br1        -1.8202    5.4249   -3.1008 Br        1 <0>        -0.0251
     10 C8          2.0776    1.8222   -2.5130 C.3       1 <0>         0.1618
     11 N1          2.4987    1.8927   -1.1117 N.pl3     1 <0>        -0.4671
     12 C9          3.7692    2.1316   -0.6350 C.2       1 <0>         0.3167
     13 N2          3.6982    2.1089    0.6780 N.2       1 <0>        -0.2616
     14 N3          2.4886    1.8811    1.0474 N.pl3     1 <0>        -0.3921
     15 C10         1.7138    1.7353   -0.0050 C.2       1 <0>         0.4506
     16 S1         -0.0170    1.4058    0.0098 S.2       1 <0>        -0.6031
     17 C11         4.9765    2.3674   -1.4420 C.2       1 <0>         0.0707
     18 C12         6.1413    2.8838   -0.9725 C.2       1 <0>        -0.1045
     19 C13         7.0527    2.9343   -2.1169 C.ar      1 <0>        -0.1392
     20 C14         8.3734    3.3521   -2.2914 C.ar      1 <0>        -0.0572
     21 C15         8.9517    3.2719   -3.5276 C.ar      1 <0>        -0.1326
     22 C16         8.2341    2.7791   -4.6082 C.ar      1 <0>        -0.0764
     23 C17         6.9286    2.3615   -4.4556 C.ar      1 <0>        -0.1096
     24 C18         6.3208    2.4335   -3.2088 C.ar      1 <0>         0.0725
     25 O2          5.0910    2.1088   -2.7603 O.3       1 <0>        -0.1872
     26 H1          1.1347    8.7350   -5.1494 H         1 <0>         0.1088
     27 H2          1.9875    7.2656   -5.7328 H         1 <0>         0.0611
     28 H3          2.3623    7.9364   -4.1091 H         1 <0>         0.0596
     29 H4          2.9658    5.9550   -4.4233 H         1 <0>         0.1401
     30 H5          3.6308    3.7146   -3.6513 H         1 <0>         0.1306
     31 H6         -0.3780    2.9400   -2.4181 H         1 <0>         0.1580
     32 H7          1.2254    1.1329   -2.6055 H         1 <0>         0.1310
     33 H8          2.9128    1.4574   -3.1289 H         1 <0>         0.1196
     34 H9          2.2400    1.8342    2.1179 H         1 <0>         0.5139
     35 H10         6.3531    3.1926    0.0405 H         1 <0>         0.1739
     36 H11         8.9357    3.7371   -1.4536 H         1 <0>         0.1345
     37 H12         9.9733    3.5943   -3.6640 H         1 <0>         0.1356
     38 H13         8.7032    2.7215   -5.5793 H         1 <0>         0.1412
     39 H14         6.3801    1.9791   -5.3037 H         1 <0>         0.1379
@<TRIPOS>BOND
     1    1    2 1
     2    1   26 1
     3    1   27 1
     4    1   28 1
     5    2    3 1
     6    3    8 ar
     7    3    4 ar
     8    4    5 ar
     9    4   29 1
    10    5    6 ar
    11    5   30 1
    12    6    7 ar
    13    6   10 1
    14    7    8 ar
    15    7   31 1
    16    8    9 1
    17   10   32 1
    18   10   33 1
    19   10   11 1
    20   11   15 1
    21   11   12 1
    22   12   17 1
    23   12   13 2
    24   13   14 1
    25   14   15 1
    26   14   34 1
    27   15   16 2
    28   17   25 1
    29   17   18 2
    30   18   19 1
    31   18   35 1
    32   19   24 ar
    33   19   20 ar
    34   20   21 ar
    35   20   36 1
    36   21   22 ar
    37   21   37 1
    38   22   23 ar
    39   22   38 1
    40   23   24 ar
    41   23   39 1
    42   24   25 1
@<TRIPOS>MOLECULE
ZINC41003045
   38    40     0     0     0
SMALL
USER_CHARGES

@<TRIPOS>ATOM
      1 C1          0.0685    0.7405    1.6961 C.ar      1 <0>        -0.0458
      2 C2          1.2346    1.4280    1.9550 C.ar      1 <0>        -0.1475
      3 C3          2.3009    1.3477    1.0724 C.ar      1 <0>         0.1078
      4 C4          2.2022    0.5763   -0.0756 C.ar      1 <0>        -0.1476
      5 C5          1.0420   -0.1165   -0.3462 C.ar      1 <0>        -0.0789
      6 C6         -0.0376   -0.0399    0.5401 C.ar      1 <0>        -0.0146
      7 C7         -1.2791   -0.7768    0.2576 C.2       1 <0>        -0.6510
      8 C8         -2.4355   -0.1104    0.1009 C.2       1 <0>         0.1804
      9 O1         -3.6350   -0.6688   -0.1308 O.3       1 <0>        -0.3031
     10 C9         -3.7620   -1.9647   -0.7031 C.3       1 <0>         0.0731
     11 C10        -3.0173   -2.9820    0.1787 C.3       1 <0>        -0.6531
     12 S1         -1.2492   -2.5387    0.1169 S.o2      1 <0>         2.4820
     13 O2         -0.5852   -2.9927    1.2883 O.2       1 <0>        -0.9061
     14 O3         -0.7140   -2.7982   -1.1737 O.2       1 <0>        -0.9112
     15 C11        -2.3835    1.3540    0.1912 C.2       1 <0>         0.5547
     16 O4         -1.3206    1.9338    0.0683 O.2       1 <0>        -0.4511
     17 N1         -3.5128    2.0563    0.4101 N.am      1 <0>        -0.6501
     18 C12        -3.4843    3.4547    0.3778 C.ar      1 <0>         0.1611
     19 C13        -2.5021    4.1140   -0.3496 C.ar      1 <0>        -0.1062
     20 C14        -2.4762    5.4945   -0.3798 C.ar      1 <0>        -0.0790
     21 C15        -3.4275    6.2216    0.3144 C.ar      1 <0>        -0.0399
     22 C16        -4.4074    5.5682    1.0407 C.ar      1 <0>        -0.0785
     23 C17        -4.4423    4.1867    1.0691 C.ar      1 <0>        -0.0561
     24 Cl1        -5.6768    3.3671    1.9736 Cl        1 <0>        -0.0481
     25 Cl2        -3.3909    7.9567    0.2743 Cl        1 <0>        -0.0515
     26 F1          3.4411    2.0244    1.3318 F         1 <0>        -0.1383
     27 H1         -0.7598    0.8006    2.3865 H         1 <0>         0.1237
     28 H2          1.3178    2.0309    2.8472 H         1 <0>         0.1365
     29 H3          3.0361    0.5185   -0.7593 H         1 <0>         0.1399
     30 H4          0.9663   -0.7170   -1.2406 H         1 <0>         0.1403
     31 H5         -4.8162   -2.2357   -0.7608 H         1 <0>         0.1507
     32 H6         -3.3297   -1.9649   -1.7038 H         1 <0>         0.0992
     33 H7         -3.3833   -2.9241    1.2038 H         1 <0>         0.1569
     34 H8         -3.1610   -3.9892   -0.2125 H         1 <0>         0.1653
     35 H9         -4.3454    1.5921    0.5899 H         1 <0>         0.4231
     36 H10        -1.7589    3.5476   -0.8911 H         1 <0>         0.1647
     37 H11        -1.7124    6.0073   -0.9455 H         1 <0>         0.1470
     38 H12        -5.1483    6.1380    1.5817 H         1 <0>         0.1511
@<TRIPOS>BOND
     1    1    6 ar
     2    1    2 ar
     3    1   27 1
     4    2    3 ar
     5    2   28 1
     6    3    4 ar
     7    3   26 1
     8    4    5 ar
     9    4   29 1
    10    5    6 ar
    11    5   30 1
    12    6    7 1
    13    7   12 1
    14    7    8 2
    15    8    9 1
    16    8   15 1
    17    9   10 1
    18   10   11 1
    19   10   31 1
    20   10   32 1
    21   11   12 1
    22   11   33 1
    23   11   34 1
    24   12   13 2
    25   12   14 2
    26   15   16 2
    27   15   17 am
    28   17   18 1
    29   17   35 1
    30   18   23 ar
    31   18   19 ar
    32   19   20 ar
    33   19   36 1
    34   20   21 ar
    35   20   37 1
    36   21   22 ar
    37   21   25 1
    38   22   23 ar
    39   22   38 1
    40   23   24 1
@<TRIPOS>MOLECULE
ZINC50016501
   28    29     0     0     0
SMALL
USER_CHARGES

@<TRIPOS>ATOM
      1 C1          0.0980    1.0927    0.4648 C.ar      1 <0>        -0.0948
      2 C2          1.2697    1.8238    0.4920 C.ar      1 <0>        -0.1200
      3 C3          2.4170    1.3169   -0.1040 C.ar      1 <0>         0.1459
      4 C4          2.3824    0.0754   -0.7260 C.ar      1 <0>        -0.0838
      5 C5          1.2076   -0.6509   -0.7498 C.ar      1 <0>        -0.0829
      6 C6          0.0664   -0.1427   -0.1550 C.ar      1 <0>        -0.0944
      7 I1          1.1535   -2.5233   -1.6881 I         1 <0>        -0.0325
      8 N1          3.6046    2.0550   -0.0784 N.am      1 <0>        -0.6594
      9 C7          4.7893    1.4218    0.0305 C.2       1 <0>         0.5591
     10 O1          4.8316    0.2067    0.0291 O.2       1 <0>        -0.4624
     11 C8          6.0363    2.2039    0.1515 C.ar      1 <0>        -0.0491
     12 C9          6.3570    3.1647   -0.8104 C.ar      1 <0>        -0.0975
     13 C10         7.5237    3.8925   -0.6921 C.ar      1 <0>         0.1257
     14 C11         8.3771    3.6698    0.3807 C.ar      1 <0>         0.0979
     15 C12         8.0620    2.7175    1.3366 C.ar      1 <0>        -0.0633
     16 C13         6.8958    1.9895    1.2308 C.ar      1 <0>         0.0063
     17 N2          6.5583    0.9774    2.2569 N.pl3     1 <0>         0.0242
     18 O2          7.3553    0.7079    3.1252 O.2       1 <0>        -0.1421
     19 O3          5.4857    0.4204    2.2268 O.3       1 <0>        -0.1087
     20 F1          9.5186    4.3838    0.4923 F         1 <0>        -0.1001
     21 F2          7.8361    4.8223   -1.6211 F         1 <0>        -0.0997
     22 H1         -0.7933    1.4847    0.9322 H         1 <0>         0.1383
     23 H2          1.2934    2.7890    0.9761 H         1 <0>         0.1337
     24 H3          3.2729   -0.3215   -1.1907 H         1 <0>         0.1466
     25 H4         -0.8509   -0.7124   -0.1746 H         1 <0>         0.1329
     26 H5          3.5756    3.0226   -0.1391 H         1 <0>         0.4151
     27 H6          5.6937    3.3374   -1.6450 H         1 <0>         0.1786
     28 H7          8.7292    2.5483    2.1689 H         1 <0>         0.1864
@<TRIPOS>BOND
     1    1    6 ar
     2    1    2 ar
     3    1   22 1
     4    2    3 ar
     5    2   23 1
     6    3    4 ar
     7    3    8 1
     8    4    5 ar
     9    4   24 1
    10    5    6 ar
    11    5    7 1
    12    6   25 1
    13    8    9 am
    14    8   26 1
    15    9   10 2
    16    9   11 1
    17   11   16 ar
    18   11   12 ar
    19   12   13 ar
    20   12   27 1
    21   13   14 ar
    22   13   21 1
    23   14   15 ar
    24   14   20 1
    25   15   16 ar
    26   15   28 1
    27   16   17 1
    28   17   18 2
    29   17   19 1
@<TRIPOS>MOLECULE
ZINC17201708
   28    30     0     0     0
SMALL
USER_CHARGES

@<TRIPOS>ATOM
      1 C1         -0.0164    1.3607    0.0095 C.ar      1 <0>        -0.1346
      2 C2          1.1678    2.0849    0.0021 C.ar      1 <0>        -0.0596
      3 C3          2.3847    1.4356   -0.0210 C.ar      1 <0>        -0.1271
      4 C4          2.4257    0.0485   -0.0350 C.ar      1 <0>         0.0921
      5 C5          1.2272   -0.6869   -0.0125 C.ar      1 <0>        -0.0063
      6 C6          0.0021   -0.0041    0.0020 C.ar      1 <0>        -0.0280
      7 N1          1.2526   -2.0361    0.0111 N.2       1 <0>        -0.3354
      8 C7          2.3822   -2.6648    0.2040 C.2       1 <0>         0.0801
      9 C8          2.4386   -4.1707    0.1981 C.3       1 <0>        -0.1055
     10 C9          1.0592   -4.7241   -0.0512 C.2       1 <0>         0.4300
     11 O1          0.1213   -3.9688   -0.2089 O.2       1 <0>        -0.3987
     12 C10         0.8572   -6.1210   -0.1015 C.2       1 <0>        -0.2933
     13 C11        -0.3199   -6.8300   -0.3226 C.2       1 <0>        -0.0560
     14 C12        -0.2011   -8.1964   -0.3142 C.2       1 <0>        -0.1922
     15 C13         1.0187   -8.7525   -0.0977 C.2       1 <0>        -0.2154
     16 S1          2.0448   -7.4362    0.0937 S.3       1 <0>         0.2289
     17 C14         3.6002   -1.8640    0.4269 C.2       1 <0>         0.4778
     18 O2          4.5519   -2.3130    1.0372 O.2       1 <0>        -0.4172
     19 O3          3.6134   -0.6057   -0.0771 O.3       1 <0>        -0.2641
     20 H1         -0.9619    1.8824    0.0259 H         1 <0>         0.1421
     21 H2          1.1362    3.1644    0.0142 H         1 <0>         0.1449
     22 H3          3.3025    2.0049   -0.0285 H         1 <0>         0.1464
     23 H4         -0.9254   -0.5575    0.0076 H         1 <0>         0.1486
     24 H5          3.1126   -4.5060   -0.5902 H         1 <0>         0.1295
     25 H6          2.8031   -4.5244    1.1626 H         1 <0>         0.1332
     26 H7         -1.2658   -6.3362   -0.4895 H         1 <0>         0.1499
     27 H8         -1.0664   -8.8218   -0.4773 H         1 <0>         0.1391
     28 H9          1.2722   -9.8017   -0.0614 H         1 <0>         0.1907
@<TRIPOS>BOND
     1    1    6 ar
     2    1    2 ar
     3    1   20 1
     4    2    3 ar
     5    2   21 1
     6    3    4 ar
     7    3   22 1
     8    4   19 1
     9    4    5 ar
    10    5    6 ar
    11    5    7 1
    12    6   23 1
    13    7    8 2
    14    8   17 1
    15    8    9 1
    16    9   10 1
    17    9   25 1
    18    9   24 1
    19   10   11 2
    20   10   12 1
    21   12   16 1
    22   12   13 2
    23   13   14 1
    24   13   26 1
    25   14   15 2
    26   14   27 1
    27   15   16 1
    28   15   28 1
    29   17   18 2
    30   17   19 1
@<TRIPOS>MOLECULE
ZINC36913303
   37    39     0     0     0
SMALL
USER_CHARGES

@<TRIPOS>ATOM
      1 C1         -0.0164    1.3588    0.0095 C.ar      1 <0>        -0.1201
      2 C2          1.1699    2.0872    0.0021 C.ar      1 <0>        -0.0846
      3 C3          2.3790    1.4600   -0.0132 C.ar      1 <0>        -0.1005
      4 C4          2.4378    0.0567   -0.0213 C.ar      1 <0>         0.1513
      5 C5          1.2298   -0.6808   -0.0132 C.ar      1 <0>        -0.1181
      6 C6          0.0021   -0.0041    0.0020 C.ar      1 <0>        -0.0746
      7 C7          1.2875   -2.0945   -0.0212 C.ar      1 <0>         0.3027
      8 C8          2.5543   -2.6967   -0.0370 C.ar      1 <0>        -0.1081
      9 C9          3.7002   -1.8858   -0.0440 C.ar      1 <0>         0.1823
     10 N1          3.6170   -0.5796   -0.0359 N.ar      1 <0>        -0.4731
     11 C10         2.6774   -4.1234   -0.0452 C.1       1 <0>         0.2645
     12 N2          2.7750   -5.2551   -0.0518 N.1       1 <0>        -0.4069
     13 N3          0.1370   -2.8549   -0.0134 N.pl3     1 <0>        -0.6810
     14 C11        -0.4780   -3.2691    1.2550 C.3       1 <0>         0.1467
     15 C12        -0.6622   -4.7898    1.2402 C.3       1 <0>        -0.1338
     16 C13        -1.4573   -5.1912   -0.0044 C.3       1 <0>        -0.0808
     17 C14        -0.6815   -4.7864   -1.2599 C.3       1 <0>        -0.1289
     18 C15        -0.5005   -3.2609   -1.2734 C.3       1 <0>         0.1437
     19 C16        -1.6731   -6.7059   -0.0048 C.3       1 <0>         0.0790
     20 O1         -2.5131   -7.0671   -1.1029 O.3       1 <0>        -0.5731
     21 H1         -0.9624    1.8796    0.0259 H         1 <0>         0.1307
     22 H2          1.1310    3.1665    0.0082 H         1 <0>         0.1338
     23 H3          3.2899    2.0402   -0.0195 H         1 <0>         0.1406
     24 H4         -0.9241   -0.5596    0.0082 H         1 <0>         0.1334
     25 H5          4.6746   -2.3513   -0.0561 H         1 <0>         0.1687
     26 H6          0.1707   -2.9877    2.0846 H         1 <0>         0.0735
     27 H7         -1.4480   -2.7846    1.3662 H         1 <0>         0.0631
     28 H8          0.3139   -5.2744    1.2203 H         1 <0>         0.0674
     29 H9         -1.2044   -5.0993    2.1337 H         1 <0>         0.0748
     30 H10        -2.4236   -4.6870    0.0038 H         1 <0>         0.0792
     31 H11         0.2949   -5.2710   -1.2563 H         1 <0>         0.0635
     32 H12        -1.2373   -5.0935   -2.1458 H         1 <0>         0.0798
     33 H13        -1.4723   -2.7757   -1.3641 H         1 <0>         0.0627
     34 H14         0.1332   -2.9741   -2.1126 H         1 <0>         0.0720
     35 H15        -0.7115   -7.2099   -0.1018 H         1 <0>         0.0446
     36 H16        -2.1477   -7.0056    0.9296 H         1 <0>         0.0452
     37 H17        -2.6929   -8.0152   -1.1654 H         1 <0>         0.3805
@<TRIPOS>BOND
     1    1    6 ar
     2    1    2 ar
     3    1   21 1
     4    2    3 ar
     5    2   22 1
     6    3    4 ar
     7    3   23 1
     8    4   10 ar
     9    4    5 ar
    10    5    6 ar
    11    5    7 ar
    12    6   24 1
    13    7    8 ar
    14    7   13 1
    15    8    9 ar
    16    8   11 1
    17    9   10 ar
    18    9   25 1
    19   11   12 3
    20   13   18 1
    21   13   14 1
    22   14   15 1
    23   14   26 1
    24   14   27 1
    25   15   16 1
    26   15   28 1
    27   15   29 1
    28   16   17 1
    29   16   19 1
    30   16   30 1
    31   17   18 1
    32   17   31 1
    33   17   32 1
    34   18   33 1
    35   18   34 1
    36   19   20 1
    37   19   35 1
    38   19   36 1
    39   20   37 1
@<TRIPOS>MOLECULE
ZINC41684833
   40    42     0     0     0
SMALL
USER_CHARGES

@<TRIPOS>ATOM
      1 C1         -0.3481    1.5585    0.5404 C.3       1 <0>        -0.1438
      2 C2         -0.2731    0.0310    0.4958 C.3       1 <0>         0.0719
      3 H1          0.4244   -0.2767   -0.2832 H         1 <0>         0.0671
      4 C3         -1.6628   -0.5413    0.1940 C.3       1 <0>         0.0831
      5 N1         -1.6043   -2.0043    0.3415 N.am      1 <0>        -0.6091
      6 C4         -1.0236   -2.5521    1.5776 C.3       1 <0>         0.0763
      7 C5          0.3349   -1.8819    1.8120 C.3       1 <0>         0.1003
      8 O1          0.1756   -0.4621    1.7605 O.3       1 <0>        -0.3668
      9 C6          0.8740   -2.2860    3.1857 C.3       1 <0>        -0.1379
     10 C7          1.3174   -2.3246    0.7259 C.3       1 <0>        -0.1759
     11 C8         -2.0685   -2.8183   -0.6271 C.2       1 <0>         0.5677
     12 O2         -2.6100   -2.3478   -1.6091 O.2       1 <0>        -0.5270
     13 C9         -1.9198   -4.2787   -0.4963 C.ar      1 <0>        -0.0829
     14 C10        -2.3531   -4.9298    0.6566 C.ar      1 <0>        -0.1143
     15 C11        -2.2126   -6.3002    0.7760 C.ar      1 <0>        -0.1054
     16 C12        -1.6442   -7.0453   -0.2378 C.ar      1 <0>        -0.1056
     17 C13        -1.2022   -6.4246   -1.4001 C.ar      1 <0>         0.0908
     18 C14        -1.3431   -5.0319   -1.5387 C.ar      1 <0>        -0.0645
     19 C15        -0.7987   -4.6977   -2.8515 C.2       1 <0>        -0.2000
     20 C16        -0.3836   -5.8492   -3.4102 C.2       1 <0>         0.0605
     21 N2         -0.6092   -6.8889   -2.5541 N.pl3     1 <0>        -0.5940
     22 H2         -0.3942   -7.8172   -2.7357 H         1 <0>         0.4187
     23 H3          0.6400    1.9646    0.7568 H         1 <0>         0.0685
     24 H4         -0.6920    1.9336   -0.4235 H         1 <0>         0.0748
     25 H5         -1.0457    1.8655    1.3196 H         1 <0>         0.0666
     26 H6         -2.3892   -0.1304    0.8951 H         1 <0>         0.0774
     27 H7         -1.9513   -0.2864   -0.8257 H         1 <0>         0.1017
     28 H8         -1.6857   -2.3437    2.4181 H         1 <0>         0.0795
     29 H9         -0.8888   -3.6288    1.4741 H         1 <0>         0.1050
     30 H10         0.9918   -3.3689    3.2256 H         1 <0>         0.0744
     31 H11         1.8399   -1.8091    3.3517 H         1 <0>         0.0694
     32 H12         0.1742   -1.9680    3.9586 H         1 <0>         0.0672
     33 H13         0.9332   -2.0340   -0.2519 H         1 <0>         0.0605
     34 H14         2.2831   -1.8476    0.8932 H         1 <0>         0.0666
     35 H15         1.4358   -3.4075    0.7626 H         1 <0>         0.0677
     36 H16        -2.7998   -4.3625    1.4597 H         1 <0>         0.1294
     37 H17        -2.5518   -6.7943    1.6744 H         1 <0>         0.1341
     38 H18        -1.5422   -8.1147   -0.1270 H         1 <0>         0.1256
     39 H19        -0.7405   -3.7129   -3.2910 H         1 <0>         0.1478
     40 H20         0.0686   -5.9370   -4.3870 H         1 <0>         0.1750
@<TRIPOS>BOND
     1    1    2 1
     2    1   23 1
     3    1   24 1
     4    1   25 1
     5    2    3 1
     6    2    8 1
     7    2    4 1
     8    4    5 1
     9    4   26 1
    10    4   27 1
    11    5    6 1
    12    5   11 am
    13    6    7 1
    14    6   28 1
    15    6   29 1
    16    7    8 1
    17    7    9 1
    18    7   10 1
    19    9   30 1
    20    9   31 1
    21    9   32 1
    22   10   33 1
    23   10   34 1
    24   10   35 1
    25   11   12 2
    26   11   13 1
    27   13   18 ar
    28   13   14 ar
    29   14   15 ar
    30   14   36 1
    31   15   16 ar
    32   15   37 1
    33   16   17 ar
    34   16   38 1
    35   17   21 1
    36   17   18 ar
    37   18   19 1
    38   19   20 2
    39   19   39 1
    40   20   21 1
    41   20   40 1
    42   21   22 1
@<TRIPOS>MOLECULE
ZINC50892002
   32    35     0     0     0
SMALL
USER_CHARGES

@<TRIPOS>ATOM
      1 C1          0.0767    1.1537   -0.0818 C.ar      1 <0>        -0.1904
      2 C2          1.2520    1.8767   -0.1876 C.ar      1 <0>        -0.0243
      3 C3          2.3925    1.3668    0.4285 C.ar      1 <0>        -0.1127
      4 C4          3.7899    1.8197    0.5441 C.2       1 <0>        -0.2443
      5 C5          4.4399    0.8738    1.2839 C.2       1 <0>         0.1340
      6 N1          3.5750   -0.1104    1.6299 N.pl3     1 <0>        -0.5628
      7 H1          3.8082   -0.8904    2.1573 H         1 <0>         0.4268
      8 C6          2.3187    0.1509    1.1294 C.ar      1 <0>         0.2752
      9 N2          1.1652   -0.5003    1.1986 N.ar      1 <0>        -0.4940
     10 C7          0.0745   -0.0380    0.6244 C.ar      1 <0>         0.1379
     11 C8          4.3683    3.0443   -0.0233 C.2       1 <0>         0.4723
     12 O1          3.6482    3.8647   -0.5618 O.2       1 <0>        -0.4563
     13 C9          5.8234    3.2806    0.0594 C.ar      1 <0>        -0.1801
     14 C10         6.7145    2.2040    0.0338 C.ar      1 <0>        -0.0540
     15 C11         8.0692    2.4258    0.1067 C.ar      1 <0>        -0.1452
     16 C12         8.5684    3.7255    0.2083 C.ar      1 <0>         0.1337
     17 C13         7.6758    4.7931    0.2414 C.ar      1 <0>        -0.1819
     18 C14         6.3214    4.5835    0.1581 C.ar      1 <0>        -0.0145
     19 C15         8.5019    6.0577    0.3791 C.3       1 <0>        -0.1116
     20 C16         9.8772    5.4953    0.8096 C.3       1 <0>         0.0502
     21 O2          9.8554    4.1592    0.2797 O.3       1 <0>        -0.3001
     22 H2         -0.8305    1.5171   -0.5415 H         1 <0>         0.1426
     23 H3          1.2841    2.8089   -0.7321 H         1 <0>         0.1438
     24 H4          5.4856    0.9050    1.5523 H         1 <0>         0.1934
     25 H5         -0.8436   -0.6009    0.7063 H         1 <0>         0.1653
     26 H6          6.3376    1.1948   -0.0431 H         1 <0>         0.1409
     27 H7          8.7517    1.5891    0.0855 H         1 <0>         0.1371
     28 H8          5.6419    5.4228    0.1738 H         1 <0>         0.1354
     29 H9          8.5759    6.5804   -0.5746 H         1 <0>         0.0949
     30 H10         8.0897    6.7105    1.1485 H         1 <0>         0.0961
     31 H11        10.6871    6.0738    0.3651 H         1 <0>         0.1111
     32 H12         9.9645    5.4784    1.8960 H         1 <0>         0.0816
@<TRIPOS>BOND
     1    1   10 ar
     2    1    2 ar
     3    1   22 1
     4    2    3 ar
     5    2   23 1
     6    3    8 ar
     7    3    4 1
     8    4    5 2
     9    4   11 1
    10    5    6 1
    11    5   24 1
    12    6    7 1
    13    6    8 1
    14    8    9 ar
    15    9   10 ar
    16   10   25 1
    17   11   12 2
    18   11   13 1
    19   13   18 ar
    20   13   14 ar
    21   14   15 ar
    22   14   26 1
    23   15   16 ar
    24   15   27 1
    25   16   21 1
    26   16   17 ar
    27   17   18 ar
    28   17   19 1
    29   18   28 1
    30   19   20 1
    31   19   29 1
    32   19   30 1
    33   20   21 1
    34   20   31 1
    35   20   32 1
@<TRIPOS>MOLECULE
ZINC13686515
   29    31     0     0     0
SMALL
USER_CHARGES

@<TRIPOS>ATOM
      1 C1         -0.0167    1.3769    0.0096 C.ar      1 <0>        -0.1038
      2 C2          1.1703    2.0866    0.0021 C.ar      1 <0>        -0.0866
      3 C3          2.3798    1.4168   -0.0130 C.ar      1 <0>        -0.1033
      4 C4          2.4058    0.0348   -0.0211 C.ar      1 <0>        -0.0123
      5 C5          1.2146   -0.6807   -0.0136 C.ar      1 <0>         0.1538
      6 C6          0.0021   -0.0041    0.0020 C.ar      1 <0>        -0.0884
      7 N1          1.2368   -2.0800   -0.0222 N.pl3     1 <0>        -0.5315
      8 C7          1.2564   -2.9415    1.1706 C.3       1 <0>         0.1126
      9 H1          2.1615   -2.7578    1.7494 H         1 <0>         0.1370
     10 C8          0.0088   -2.6425    2.0294 C.3       1 <0>        -0.5900
     11 S1         -1.1779   -3.9087    1.4016 S.o2      1 <0>         2.3579
     12 O1         -2.0012   -4.3534    2.4710 O.2       1 <0>        -0.9180
     13 O2         -1.7746   -3.4397    0.2002 O.2       1 <0>        -0.9038
     14 C9          0.0616   -5.2158    1.0003 C.3       1 <0>        -0.5851
     15 C10         1.2758   -4.3635    0.6019 C.3       1 <0>         0.1098
     16 H2          2.1937   -4.8719    0.8970 H         1 <0>         0.1381
     17 N2          1.2651   -4.1654   -0.8561 N.pl3     1 <0>        -0.6753
     18 C11         1.2379   -2.8514   -1.1179 C.2       1 <0>         0.5625
     19 S2          1.2111   -2.2161   -2.7075 S.2       1 <0>        -0.5781
     20 Cl1         3.9246   -0.8059   -0.0412 Cl        1 <0>        -0.0530
     21 H3         -0.9595    1.9034    0.0259 H         1 <0>         0.1415
     22 H4          1.1525    3.1664    0.0077 H         1 <0>         0.1417
     23 H5          3.3050    1.9739   -0.0189 H         1 <0>         0.1437
     24 H6         -0.9255   -0.5572    0.0082 H         1 <0>         0.1404
     25 H7          0.2176   -2.7930    3.0886 H         1 <0>         0.1635
     26 H8         -0.3610   -1.6339    1.8446 H         1 <0>         0.1542
     27 H9          0.2800   -5.8296    1.8742 H         1 <0>         0.1623
     28 H10        -0.2749   -5.8313    0.1660 H         1 <0>         0.1576
     29 H11         1.2730   -4.8721   -1.5206 H         1 <0>         0.4526
@<TRIPOS>BOND
     1    1    6 ar
     2    1    2 ar
     3    1   21 1
     4    2    3 ar
     5    2   22 1
     6    3    4 ar
     7    3   23 1
     8    4    5 ar
     9    4   20 1
    10    5    6 ar
    11    5    7 1
    12    6   24 1
    13    7   18 1
    14    7    8 1
    15    8    9 1
    16    8   15 1
    17    8   10 1
    18   10   11 1
    19   10   25 1
    20   10   26 1
    21   11   12 2
    22   11   13 2
    23   11   14 1
    24   14   15 1
    25   14   27 1
    26   14   28 1
    27   15   16 1
    28   15   17 1
    29   17   18 1
    30   17   29 1
    31   18   19 2
@<TRIPOS>MOLECULE
ZINC36168956
   41    43     0     0     0
SMALL
USER_CHARGES

@<TRIPOS>ATOM
      1 C1         -0.0187    1.5258    0.0104 C.3       1 <0>        -0.1534
      2 C2          0.0021   -0.0041    0.0020 C.3       1 <0>        -0.1191
      3 C3          0.7182   -0.4975   -1.2568 C.3       1 <0>        -0.1036
      4 H1          1.7104   -0.0493   -1.3102 H         1 <0>         0.0707
      5 C4         -0.0898   -0.0984   -2.4937 C.3       1 <0>        -0.1118
      6 C5          0.6422   -0.5628   -3.7549 C.3       1 <0>        -0.1374
      7 C6          0.7707   -2.0892   -3.7331 C.3       1 <0>         0.1444
      8 N1          1.4182   -2.4913   -2.4770 N.pl3     1 <0>        -0.6668
      9 C7          0.8483   -2.0230   -1.2063 C.3       1 <0>         0.1496
     10 C8          2.5592   -3.3071   -2.4904 C.ar      1 <0>         0.1002
     11 C9          3.8213   -2.7336   -2.5382 C.ar      1 <0>        -0.0764
     12 C10         4.9462   -3.5424   -2.5512 C.ar      1 <0>         0.0349
     13 C11         4.8118   -4.9290   -2.5167 C.ar      1 <0>         0.1260
     14 C12         3.5528   -5.5020   -2.4687 C.ar      1 <0>        -0.1860
     15 C13         2.4250   -4.6939   -2.4498 C.ar      1 <0>         0.2270
     16 N2          1.1492   -5.2729   -2.3957 N.pl3     1 <0>        -0.8653
     17 O1          5.9268   -5.7095   -2.5319 O.3       1 <0>        -0.3027
     18 C14         7.0478   -5.2150   -3.2690 C.3       1 <0>         0.0521
     19 C15         7.2799   -3.7655   -2.9258 C.2       1 <0>         0.4887
     20 O2          8.4031   -3.3076   -2.9436 O.2       1 <0>        -0.5172
     21 N3          6.2319   -2.9788   -2.5980 N.am      1 <0>        -0.6555
     22 H2          1.0039    1.9031    0.0027 H         1 <0>         0.0527
     23 H3         -0.5459    1.8868   -0.8726 H         1 <0>         0.0561
     24 H4         -0.5289    1.8773    0.9072 H         1 <0>         0.0533
     25 H5          0.5293   -0.3651    0.8851 H         1 <0>         0.0617
     26 H6         -1.0205   -0.3814    0.0098 H         1 <0>         0.0620
     27 H7         -1.0733   -0.5665   -2.4516 H         1 <0>         0.0604
     28 H8         -0.2043    0.9852   -2.5186 H         1 <0>         0.0629
     29 H9          0.0779   -0.2578   -4.6362 H         1 <0>         0.0668
     30 H10         1.6353   -0.1145   -3.7851 H         1 <0>         0.0627
     31 H11        -0.2197   -2.5402   -3.7944 H         1 <0>         0.0483
     32 H12         1.3766   -2.4170   -4.5778 H         1 <0>         0.0679
     33 H13         1.5052   -2.3067   -0.3840 H         1 <0>         0.0680
     34 H14        -0.1356   -2.4691   -1.0612 H         1 <0>         0.0485
     35 H15         3.9268   -1.6592   -2.5657 H         1 <0>         0.1312
     36 H16         3.4485   -6.5766   -2.4417 H         1 <0>         0.1385
     37 H17         0.3604   -4.7084   -2.3865 H         1 <0>         0.4027
     38 H18         1.0553   -6.2379   -2.3674 H         1 <0>         0.3986
     39 H19         7.9347   -5.7949   -3.0132 H         1 <0>         0.1456
     40 H20         6.8496   -5.3079   -4.3367 H         1 <0>         0.1001
     41 H21         6.3651   -2.0389   -2.3984 H         1 <0>         0.4139
@<TRIPOS>BOND
     1    1    2 1
     2    1   22 1
     3    1   23 1
     4    1   24 1
     5    2    3 1
     6    2   25 1
     7    2   26 1
     8    3    4 1
     9    3    9 1
    10    3    5 1
    11    5    6 1
    12    5   27 1
    13    5   28 1
    14    6    7 1
    15    6   29 1
    16    6   30 1
    17    7    8 1
    18    7   31 1
    19    7   32 1
    20    8    9 1
    21    8   10 1
    22    9   33 1
    23    9   34 1
    24   10   15 ar
    25   10   11 ar
    26   11   12 ar
    27   11   35 1
    28   12   21 1
    29   12   13 ar
    30   13   14 ar
    31   13   17 1
    32   14   15 ar
    33   14   36 1
    34   15   16 1
    35   16   37 1
    36   16   38 1
    37   17   18 1
    38   18   19 1
    39   18   39 1
    40   18   40 1
    41   19   20 2
    42   19   21 am
    43   21   41 1
@<TRIPOS>MOLECULE
ZINC43428217
   41    43     0     0     0
SMALL
USER_CHARGES

@<TRIPOS>ATOM
      1 C1          0.0546    1.3956   -0.2554 C.ar      1 <0>        -0.0525
      2 C2          1.2142    2.0777    0.0595 C.ar      1 <0>        -0.2173
      3 C3          2.3853    1.3767    0.3196 C.ar      1 <0>         0.2346
      4 C4          2.3893   -0.0102    0.2627 C.ar      1 <0>        -0.2354
      5 C5          1.2233   -0.6916   -0.0538 C.ar      1 <0>         0.2084
      6 C6          0.0556    0.0153   -0.3128 C.ar      1 <0>        -0.1930
      7 N1          1.2232   -2.0898   -0.1122 N.am      1 <0>        -0.6826
      8 C7          0.0785   -2.7725    0.0883 C.2       1 <0>         0.7107
      9 O1         -0.9765   -2.1757    0.1842 O.2       1 <0>        -0.5532
     10 N2          0.1033   -4.1168    0.1824 N.am      1 <0>        -0.6284
     11 C8          1.3746   -4.8554    0.2849 C.3       1 <0>         0.0728
     12 C9          1.2892   -5.8270    1.4660 C.3       1 <0>         0.0499
     13 O2          0.0950   -6.6105    1.3650 O.3       1 <0>        -0.3721
     14 C10        -1.1001   -5.8345    1.4072 C.3       1 <0>         0.0783
     15 H1         -1.1087   -5.2348    2.3174 H         1 <0>         0.0629
     16 C11        -1.1355   -4.9052    0.1933 C.3       1 <0>         0.1352
     17 H2         -1.1970   -5.5009   -0.7175 H         1 <0>         0.0807
     18 C12        -2.3585   -3.9971    0.3027 C.3       1 <0>        -0.1041
     19 C13        -3.6209   -4.8650    0.3097 C.3       1 <0>        -0.1297
     20 C14        -3.5825   -5.8337    1.4919 C.3       1 <0>        -0.1191
     21 C15        -2.3422   -6.7220    1.3755 C.3       1 <0>        -0.1083
     22 N3          3.5573    2.0668    0.6374 N.pl3     1 <0>        -0.8786
     23 H3         -0.8555    1.9425   -0.4527 H         1 <0>         0.1240
     24 H4          1.2104    3.1568    0.1032 H         1 <0>         0.1187
     25 H5          3.2983   -0.5574    0.4640 H         1 <0>         0.1192
     26 H6         -0.8525   -0.5149   -0.5593 H         1 <0>         0.1564
     27 H7          2.0468   -2.5676   -0.2969 H         1 <0>         0.4040
     28 H8          1.5479   -5.4134   -0.6352 H         1 <0>         0.0819
     29 H9          2.1925   -4.1535    0.4479 H         1 <0>         0.0871
     30 H10         2.1570   -6.4865    1.4561 H         1 <0>         0.1099
     31 H11         1.2747   -5.2631    2.3987 H         1 <0>         0.0568
     32 H12        -2.3051   -3.4227    1.2276 H         1 <0>         0.0784
     33 H13        -2.3867   -3.3183   -0.5497 H         1 <0>         0.0882
     34 H14        -4.4993   -4.2252    0.3946 H         1 <0>         0.0696
     35 H15        -3.6759   -5.4310   -0.6202 H         1 <0>         0.0622
     36 H16        -3.5560   -5.2675    2.4229 H         1 <0>         0.0665
     37 H17        -4.4749   -6.4593    1.4761 H         1 <0>         0.0714
     38 H18        -2.3616   -7.2897    0.4452 H         1 <0>         0.0759
     39 H19        -2.3230   -7.4072    2.2230 H         1 <0>         0.0743
     40 H20         3.5540    3.0360    0.6767 H         1 <0>         0.3994
     41 H21         4.3746    1.5769    0.8188 H         1 <0>         0.3969
@<TRIPOS>BOND
     1    1    6 ar
     2    1    2 ar
     3    1   23 1
     4    2    3 ar
     5    2   24 1
     6    3    4 ar
     7    3   22 1
     8    4    5 ar
     9    4   25 1
    10    5    6 ar
    11    5    7 1
    12    6   26 1
    13    7    8 am
    14    7   27 1
    15    8    9 2
    16    8   10 am
    17   10   16 1
    18   10   11 1
    19   11   12 1
    20   11   28 1
    21   11   29 1
    22   12   13 1
    23   12   30 1
    24   12   31 1
    25   13   14 1
    26   14   15 1
    27   14   21 1
    28   14   16 1
    29   16   17 1
    30   16   18 1
    31   18   19 1
    32   18   32 1
    33   18   33 1
    34   19   20 1
    35   19   34 1
    36   19   35 1
    37   20   21 1
    38   20   36 1
    39   20   37 1
    40   21   38 1
    41   21   39 1
    42   22   40 1
    43   22   41 1
@<TRIPOS>MOLECULE
ZINC50530477
   31    32     0     0     0
SMALL
USER_CHARGES

@<TRIPOS>ATOM
      1 C1         -0.0187    1.5258    0.0104 C.3       1 <0>        -0.1636
      2 C2          0.0021   -0.0041    0.0020 C.3       1 <0>         0.1689
      3 C3          0.7421   -0.5109    1.2415 C.3       1 <0>        -0.1549
      4 C4         -1.4117   -0.5257    0.0127 C.2       1 <0>         0.5220
      5 O1         -1.9390   -0.8271    1.0625 O.2       1 <0>        -0.5184
      6 N1         -2.0902   -0.6573   -1.1443 N.am      1 <0>        -0.8540
      7 N2          0.6878   -0.4765   -1.2033 N.pl3     1 <0>        -0.6963
      8 C5          2.0079   -0.1225   -1.4333 C.ar      1 <0>         0.3855
      9 C6          2.6804   -0.5664   -2.5952 C.ar      1 <0>        -0.1035
     10 C7          2.0694   -1.3711   -3.5623 C.ar      1 <0>        -0.0870
     11 C8          2.7827   -1.7598   -4.6579 C.ar      1 <0>        -0.1005
     12 C9          4.1086   -1.3684   -4.8277 C.ar      1 <0>        -0.0848
     13 C10         4.7343   -0.5847   -3.9041 C.ar      1 <0>        -0.0934
     14 C11         4.0307   -0.1669   -2.7676 C.ar      1 <0>        -0.0339
     15 C12         4.6070    0.6439   -1.7700 C.ar      1 <0>         0.0961
     16 N3          3.8802    0.9931   -0.7328 N.ar      1 <0>        -0.2018
     17 N4          2.6592    0.6402   -0.5740 N.ar      1 <0>        -0.3112
     18 Cl1         6.2544    1.1734   -1.9089 Cl        1 <0>        -0.0054
     19 H1          1.0039    1.9031    0.0027 H         1 <0>         0.0998
     20 H2         -0.5459    1.8868   -0.8726 H         1 <0>         0.0588
     21 H3         -0.5289    1.8773    0.9072 H         1 <0>         0.0775
     22 H4          0.2319   -0.1594    2.1383 H         1 <0>         0.0809
     23 H5          0.7568   -1.6008    1.2356 H         1 <0>         0.0576
     24 H6          1.7647   -0.1336    1.2338 H         1 <0>         0.0936
     25 H7         -1.6686   -0.4162   -1.9840 H         1 <0>         0.3993
     26 H8         -3.0003   -0.9930   -1.1375 H         1 <0>         0.4076
     27 H9          0.2179   -1.0371   -1.8404 H         1 <0>         0.4081
     28 H10         1.0422   -1.6822   -3.4425 H         1 <0>         0.1326
     29 H11         2.3121   -2.3812   -5.4054 H         1 <0>         0.1371
     30 H12         4.6498   -1.6912   -5.7049 H         1 <0>         0.1385
     31 H13         5.7631   -0.2889   -4.0475 H         1 <0>         0.1450
@<TRIPOS>BOND
     1    1    2 1
     2    1   19 1
     3    1   20 1
     4    1   21 1
     5    2    3 1
     6    2    4 1
     7    2    7 1
     8    3   22 1
     9    3   23 1
    10    3   24 1
    11    4    5 2
    12    4    6 am
    13    6   25 1
    14    6   26 1
    15    7    8 1
    16    7   27 1
    17    8   17 ar
    18    8    9 ar
    19    9   14 ar
    20    9   10 ar
    21   10   11 ar
    22   10   28 1
    23   11   12 ar
    24   11   29 1
    25   12   13 ar
    26   12   30 1
    27   13   14 ar
    28   13   31 1
    29   14   15 ar
    30   15   16 ar
    31   15   18 1
    32   16   17 ar
@<TRIPOS>MOLECULE
ZINC54691120
   36    37     0     0     0
SMALL
USER_CHARGES

@<TRIPOS>ATOM
      1 C1         -0.0187    1.5258    0.0104 C.3       1 <0>        -0.1535
      2 C2          0.0021   -0.0041    0.0020 C.3       1 <0>        -0.0845
      3 H1         -1.0205   -0.3814    0.0098 H         1 <0>         0.0747
      4 C3          0.7182   -0.4975   -1.2568 C.3       1 <0>        -0.1168
      5 C4          2.1536    0.0321   -1.2676 C.3       1 <0>        -0.1164
      6 C5          2.8936   -0.4747   -0.0281 C.3       1 <0>        -0.1095
      7 C6          2.1775    0.0187    1.2307 C.3       1 <0>        -0.1177
      8 H2          2.1627    1.1086    1.2367 H         1 <0>         0.0984
      9 C7          0.7421   -0.5109    1.2415 C.3       1 <0>        -0.0937
     10 S1          3.0548   -0.5822    2.7003 S.3       1 <0>         0.0697
     11 C8          4.6205    0.2220    2.6205 C.ar      1 <0>         0.0952
     12 C9          5.5867   -0.0131    3.6135 C.ar      1 <0>         0.1176
     13 N1          6.7640    0.5988    3.5434 N.ar      1 <0>        -0.4012
     14 C10         7.0212    1.4226    2.5446 C.ar      1 <0>         0.0393
     15 C11         6.0693    1.6547    1.5664 C.ar      1 <0>         0.0902
     16 N2          4.8956    1.0487    1.6195 N.ar      1 <0>        -0.4427
     17 C12         5.2944   -0.9364    4.7311 C.2       1 <0>         0.4201
     18 N3          4.1401   -1.5336    4.7968 N.2       1 <0>        -0.3890
     19 O1          3.8602   -2.4177    5.8669 O.3       1 <0>        -0.4107
     20 N4          6.2494   -1.1656    5.7081 N.pl3     1 <0>        -0.8550
     21 H3          1.0039    1.9031    0.0027 H         1 <0>         0.0606
     22 H4         -0.5459    1.8868   -0.8726 H         1 <0>         0.0550
     23 H5         -0.5289    1.8773    0.9072 H         1 <0>         0.0539
     24 H6          0.7330   -1.5874   -1.2628 H         1 <0>         0.0626
     25 H7          0.1910   -0.1364   -2.1398 H         1 <0>         0.0630
     26 H8          2.6638   -0.3194   -2.1644 H         1 <0>         0.0620
     27 H9          2.1388    1.1220   -1.2617 H         1 <0>         0.0659
     28 H10         2.9084   -1.5646   -0.0341 H         1 <0>         0.0650
     29 H11         3.9162   -0.0975   -0.0359 H         1 <0>         0.0752
     30 H12         0.2319   -0.1594    2.1383 H         1 <0>         0.0705
     31 H13         0.7568   -1.6008    1.2356 H         1 <0>         0.0707
     32 H14         7.9791    1.9185    2.4903 H         1 <0>         0.1805
     33 H15         6.2885    2.3307    0.7531 H         1 <0>         0.1795
     34 H16         2.9785   -2.8130    5.8301 H         1 <0>         0.4043
     35 H17         7.1098   -0.7205    5.6592 H         1 <0>         0.4060
     36 H18         6.0577   -1.7712    6.4412 H         1 <0>         0.4107
@<TRIPOS>BOND
     1    1    2 1
     2    1   21 1
     3    1   22 1
     4    1   23 1
     5    2    3 1
     6    2    9 1
     7    2    4 1
     8    4    5 1
     9    4   24 1
    10    4   25 1
    11    5    6 1
    12    5   26 1
    13    5   27 1
    14    6    7 1
    15    6   28 1
    16    6   29 1
    17    7    8 1
    18    7    9 1
    19    7   10 1
    20    9   30 1
    21    9   31 1
    22   10   11 1
    23   11   16 ar
    24   11   12 ar
    25   12   13 ar
    26   12   17 1
    27   13   14 ar
    28   14   15 ar
    29   14   32 1
    30   15   16 ar
    31   15   33 1
    32   17   18 2
    33   17   20 1
    34   18   19 1
    35   19   34 1
    36   20   35 1
    37   20   36 1
@<TRIPOS>MOLECULE
ZINC36989610
   32    35     0     0     0
SMALL
USER_CHARGES

@<TRIPOS>ATOM
      1 C1         -0.0168    1.3909    0.0097 C.ar      1 <0>        -0.1159
      2 C2          1.1468    2.1049    0.0024 C.ar      1 <0>        -0.0971
      3 C3          2.3718    1.4432   -0.0129 C.ar      1 <0>         0.0880
      4 C4          2.4029    0.0355   -0.0207 C.ar      1 <0>        -0.1353
      5 C5          1.2032   -0.6850   -0.0131 C.ar      1 <0>        -0.1191
      6 C6          0.0021   -0.0041    0.0020 C.ar      1 <0>         0.1737
      7 N1         -1.2023   -0.7168    0.0097 N.pl3     1 <0>        -0.7259
      8 C7         -2.4787    0.0020    0.0258 C.3       1 <0>         0.1747
      9 H1         -2.4022    0.9271   -0.5455 H         1 <0>         0.1301
     10 C8         -3.5844   -0.8698   -0.5237 C.ar      1 <0>        -0.1757
     11 C9         -3.7882   -1.4604   -1.7508 C.ar      1 <0>        -0.0155
     12 C10        -4.9216   -2.2229   -1.9706 C.ar      1 <0>        -0.1773
     13 C11        -5.8475   -2.3890   -0.9537 C.ar      1 <0>         0.1502
     14 C12        -5.6446   -1.7967    0.2779 C.ar      1 <0>        -0.1826
     15 C13        -4.5048   -1.0282    0.5047 C.ar      1 <0>         0.1913
     16 N2         -4.0806   -0.3400    1.6420 N.am      1 <0>        -0.6615
     17 C14        -2.9067    0.2912    1.4488 C.2       1 <0>         0.5135
     18 O1         -2.3049    0.9631    2.2597 O.2       1 <0>        -0.4728
     19 F1         -6.9545   -3.1334   -1.1674 F         1 <0>        -0.1288
     20 C15         3.8119   -0.3442   -0.0367 C.2       1 <0>         0.0654
     21 N3          4.5194    0.7494   -0.0378 N.2       1 <0>        -0.2450
     22 N4          3.6776    1.8662   -0.0235 N.pl3     1 <0>        -0.5118
     23 H2          3.9697    2.7912   -0.0219 H         1 <0>         0.4389
     24 H3         -0.9627    1.9119    0.0261 H         1 <0>         0.1277
     25 H4          1.1172    3.1844    0.0082 H         1 <0>         0.1280
     26 H5          1.2168   -1.7649   -0.0194 H         1 <0>         0.1285
     27 H6         -1.1919   -1.6867    0.0044 H         1 <0>         0.4079
     28 H7         -3.0642   -1.3282   -2.5412 H         1 <0>         0.1440
     29 H8         -5.0841   -2.6869   -2.9322 H         1 <0>         0.1468
     30 H9         -6.3708   -1.9296    1.0662 H         1 <0>         0.1431
     31 H10        -4.5753   -0.3171    2.4760 H         1 <0>         0.4167
     32 H11         4.1990   -1.3524   -0.0457 H         1 <0>         0.1958
@<TRIPOS>BOND
     1    1    6 ar
     2    1    2 ar
     3    1   24 1
     4    2    3 ar
     5    2   25 1
     6    3   22 1
     7    3    4 ar
     8    4    5 ar
     9    4   20 1
    10    5    6 ar
    11    5   26 1
    12    6    7 1
    13    7    8 1
    14    7   27 1
    15    8    9 1
    16    8   17 1
    17    8   10 1
    18   10   15 ar
    19   10   11 ar
    20   11   12 ar
    21   11   28 1
    22   12   13 ar
    23   12   29 1
    24   13   14 ar
    25   13   19 1
    26   14   15 ar
    27   14   30 1
    28   15   16 1
    29   16   17 am
    30   16   31 1
    31   17   18 2
    32   20   21 2
    33   20   32 1
    34   21   22 1
    35   22   23 1
@<TRIPOS>MOLECULE
ZINC20383178
   35    37     0     0     0
SMALL
USER_CHARGES

@<TRIPOS>ATOM
      1 C1         -0.0167    1.3832    0.0096 C.ar      1 <0>        -0.1514
      2 C2          1.1729    2.0949    0.0021 C.ar      1 <0>         0.1650
      3 C3          2.3892    1.4150   -0.0136 C.ar      1 <0>         0.1485
      4 C4          2.4062    0.0289   -0.0230 C.ar      1 <0>        -0.1496
      5 C5          1.2146   -0.6818   -0.0161 C.ar      1 <0>         0.0422
      6 C6          0.0021   -0.0041    0.0020 C.ar      1 <0>         0.0502
      7 O1         -1.1771   -0.6862    0.0168 O.3       1 <0>        -0.3090
      8 C7         -1.1286   -2.0643   -0.3678 C.3       1 <0>         0.0219
      9 C8          0.0525   -2.7239    0.3569 C.3       1 <0>         0.0221
     10 O2          1.2515   -2.0436   -0.0295 O.3       1 <0>        -0.3094
     11 N1          3.5946    2.1322   -0.0203 N.pl3     1 <0>        -0.7375
     12 C9          4.8727    1.4164   -0.0368 C.3       1 <0>         0.1588
     13 H1          4.7787    0.4949    0.5377 H         1 <0>         0.1030
     14 C10         5.2490    1.0768   -1.4885 C.3       1 <0>        -0.1516
     15 C11         6.7320    0.6083   -1.5076 C.3       1 <0>        -0.5715
     16 S1          7.4792    1.8062   -0.3237 S.o2      1 <0>         2.3762
     17 O3          8.3471    1.1057    0.5568 O.2       1 <0>        -0.9327
     18 O4          7.9721    2.9253   -1.0477 O.2       1 <0>        -0.9313
     19 C12         5.9687    2.3071    0.5965 C.3       1 <0>        -0.5967
     20 N2          1.1523    3.4973    0.0098 N.pl3     1 <0>        -0.8796
     21 H2         -0.9597    1.9095    0.0260 H         1 <0>         0.1345
     22 H3          3.3485   -0.4987   -0.0361 H         1 <0>         0.1352
     23 H4         -2.0573   -2.5585   -0.0825 H         1 <0>         0.1201
     24 H5         -0.9872   -2.1404   -1.4459 H         1 <0>         0.0759
     25 H6         -0.0855   -2.6420    1.4350 H         1 <0>         0.0759
     26 H7          0.1179   -3.7742    0.0729 H         1 <0>         0.1201
     27 H8          3.5819    3.1021   -0.0140 H         1 <0>         0.3990
     28 H9          4.6058    0.2782   -1.8583 H         1 <0>         0.1054
     29 H10         5.1342    1.9613   -2.1151 H         1 <0>         0.0931
     30 H11         6.8267   -0.4153   -1.1451 H         1 <0>         0.1423
     31 H12         7.1660    0.7139   -2.5019 H         1 <0>         0.1445
     32 H13         5.7498    3.3627    0.4351 H         1 <0>         0.1436
     33 H14         6.0754    2.0915    1.6596 H         1 <0>         0.1486
     34 H15         0.3053    3.9699    0.0204 H         1 <0>         0.4015
     35 H16         1.9851    3.9946    0.0045 H         1 <0>         0.3927
@<TRIPOS>BOND
     1    1    6 ar
     2    1    2 ar
     3    1   21 1
     4    2    3 ar
     5    2   20 1
     6    3    4 ar
     7    3   11 1
     8    4    5 ar
     9    4   22 1
    10    5   10 1
    11    5    6 ar
    12    6    7 1
    13    7    8 1
    14    8    9 1
    15    8   23 1
    16    8   24 1
    17    9   10 1
    18    9   25 1
    19    9   26 1
    20   11   12 1
    21   11   27 1
    22   12   13 1
    23   12   19 1
    24   12   14 1
    25   14   15 1
    26   14   28 1
    27   14   29 1
    28   15   16 1
    29   15   30 1
    30   15   31 1
    31   16   17 2
    32   16   18 2
    33   16   19 1
    34   19   32 1
    35   19   33 1
    36   20   34 1
    37   20   35 1
@<TRIPOS>MOLECULE
ZINC40716435
   45    46     0     0     0
SMALL
USER_CHARGES

@<TRIPOS>ATOM
      1 C1         -0.0178    1.4648    0.0101 C.3       1 <0>        -0.0455
      2 N1          0.0021   -0.0041    0.0020 N.4       1 <0>        -0.3799
      3 C2          0.6815   -0.4760   -1.2105 C.3       1 <0>        -0.0091
      4 C3          0.6339   -2.0045   -1.2642 C.3       1 <0>        -0.1433
      5 C4          1.3359   -2.5754   -0.0287 C.3       1 <0>        -0.1528
      6 C5          0.6658   -2.0178    1.2303 C.3       1 <0>         0.1511
      7 H1         -0.3718   -2.3496    1.2677 H         1 <0>         0.1093
      8 C6          0.7122   -0.4888    1.1916 C.3       1 <0>        -0.0178
      9 N2          1.3766   -2.4999    2.4171 N.am      1 <0>        -0.7481
     10 C7          1.0707   -3.7021    2.9439 C.2       1 <0>         0.7052
     11 O1          0.2048   -4.3867    2.4340 O.2       1 <0>        -0.5776
     12 N3          1.7246   -4.1456    4.0357 N.am      1 <0>        -0.7298
     13 C8          1.3921   -5.4524    4.6083 C.3       1 <0>         0.1620
     14 C9          2.1752   -6.5441    3.8763 C.3       1 <0>        -0.1235
     15 C10         1.8280   -7.9090    4.4742 C.3       1 <0>        -0.0928
     16 C11         2.1978   -7.9244    5.9588 C.3       1 <0>        -0.1554
     17 C12         1.4147   -6.8327    6.6908 C.3       1 <0>        -0.0937
     18 C13         1.7620   -5.4679    6.0928 C.3       1 <0>        -0.1206
     19 C14         1.8558   -9.2687    6.5477 C.2       1 <0>         0.4944
     20 O2          2.6099   -9.7926    7.3498 O.co2     1 <0>        -0.7013
     21 O3          0.8249   -9.8324    6.2222 O.co2     1 <0>        -0.6960
     22 H2          1.0047    1.8421    0.0024 H         1 <0>         0.1218
     23 H3         -0.5450    1.8259   -0.8730 H         1 <0>         0.1257
     24 H4         -0.5280    1.8163    0.9069 H         1 <0>         0.1243
     25 H5          0.1827   -0.0663   -2.0888 H         1 <0>         0.1328
     26 H6          1.7201   -0.1456   -1.1964 H         1 <0>         0.1289
     27 H7         -0.4044   -2.3361   -1.2786 H         1 <0>         0.0916
     28 H8          1.1404   -2.3531   -2.1643 H         1 <0>         0.1158
     29 H9          1.2554   -3.6625   -0.0335 H         1 <0>         0.1027
     30 H10         2.3869   -2.2866   -0.0407 H         1 <0>         0.0821
     31 H11         1.7502   -0.1581    1.1545 H         1 <0>         0.1330
     32 H12         0.2361   -0.0886    2.0867 H         1 <0>         0.1365
     33 H13         2.0674   -1.9537    2.8239 H         1 <0>         0.4003
     34 H14         2.4155   -3.5995    4.4425 H         1 <0>         0.3950
     35 H15         0.3234   -5.6361    4.4982 H         1 <0>         0.0912
     36 H16         1.9118   -6.5331    2.8186 H         1 <0>         0.0575
     37 H17         3.2440   -6.3605    3.9864 H         1 <0>         0.0569
     38 H18         0.7592   -8.0926    4.3641 H         1 <0>         0.0696
     39 H19         2.3859   -8.6867    3.9527 H         1 <0>         0.0573
     40 H20         3.2666   -7.7408    6.0689 H         1 <0>         0.0597
     41 H21         0.3459   -7.0163    6.5807 H         1 <0>         0.0646
     42 H22         1.6782   -6.8437    7.7484 H         1 <0>         0.0647
     43 H23         2.8307   -5.2842    6.2030 H         1 <0>         0.0643
     44 H24         1.2041   -4.6901    6.6144 H         1 <0>         0.0611
     45 H25        -0.9449   -0.3523    0.0117 H         1 <0>         0.4277
@<TRIPOS>BOND
     1    1    2 1
     2    1   22 1
     3    1   23 1
     4    1   24 1
     5    2    8 1
     6    2    3 1
     7    2   45 1
     8    3    4 1
     9    3   25 1
    10    3   26 1
    11    4    5 1
    12    4   27 1
    13    4   28 1
    14    5    6 1
    15    5   29 1
    16    5   30 1
    17    6    7 1
    18    6    8 1
    19    6    9 1
    20    8   31 1
    21    8   32 1
    22    9   10 am
    23    9   33 1
    24   10   11 2
    25   10   12 am
    26   12   13 1
    27   12   34 1
    28   13   18 1
    29   13   14 1
    30   13   35 1
    31   14   15 1
    32   14   36 1
    33   14   37 1
    34   15   16 1
    35   15   38 1
    36   15   39 1
    37   16   17 1
    38   16   19 1
    39   16   40 1
    40   17   18 1
    41   17   41 1
    42   17   42 1
    43   18   43 1
    44   18   44 1
    45   19   20 2
    46   19   21 1
@<TRIPOS>MOLECULE
ZINC48835391
   46    48     0     0     0
SMALL
USER_CHARGES

@<TRIPOS>ATOM
      1 C1         -0.0186    1.5225    0.0104 C.3       1 <0>        -0.1206
      2 C2          1.4262    2.0331   -0.0006 C.3       1 <0>        -0.1037
      3 C3          2.1120    1.5701    1.2848 C.3       1 <0>        -0.1318
      4 C4          2.1032    0.0626    1.3980 C.3       1 <0>         0.1654
      5 H1          2.5016   -0.2148    2.3739 H         1 <0>         0.0635
      6 C5          0.6944   -0.5424    1.2559 C.3       1 <0>        -0.1004
      7 H2          0.0941   -0.4229    2.1579 H         1 <0>         0.0970
      8 C6          0.0021   -0.0041    0.0020 C.3       1 <0>        -0.1075
      9 C7          1.0525   -2.0315    0.9619 C.3       1 <0>        -0.1080
     10 C8          2.3196   -1.9084    0.0867 C.3       1 <0>         0.0574
     11 H3          2.0498   -1.9709   -0.9676 H         1 <0>         0.0605
     12 N1          2.9076   -0.5940    0.3641 N.am      1 <0>        -0.5871
     13 C9          4.0067   -0.0853   -0.2271 C.2       1 <0>         0.7375
     14 O1          4.4122    1.0165    0.0889 O.2       1 <0>        -0.6056
     15 N2          4.6563   -0.7980   -1.1687 N.am      1 <0>        -0.7401
     16 C10         5.8511   -0.2450   -1.8114 C.3       1 <0>         0.1603
     17 C11         5.4354    0.6394   -2.9905 C.3       1 <0>        -0.1642
     18 C12         6.6886    1.1492   -3.7053 C.3       1 <0>        -0.0008
     19 N3          7.4725    0.0104   -4.1984 N.4       1 <0>        -0.5056
     20 C13         7.9352   -0.8028   -3.0674 C.3       1 <0>         0.0015
     21 C14         6.7299   -1.3878   -2.3281 C.3       1 <0>        -0.1611
     22 C15         3.2912   -3.0070    0.4333 C.2       1 <0>         0.4829
     23 O2          3.2410   -4.0734   -0.1555 O.co2     1 <0>        -0.6930
     24 O3          4.1274   -2.8294    1.3026 O.co2     1 <0>        -0.6741
     25 H4         -0.5247    1.8765    0.9086 H         1 <0>         0.0622
     26 H5         -0.5417    1.8860   -0.8741 H         1 <0>         0.0564
     27 H6          1.9525    1.6264   -0.8642 H         1 <0>         0.0540
     28 H7          1.4303    3.1221   -0.0471 H         1 <0>         0.0554
     29 H8          3.1435    1.9224    1.2861 H         1 <0>         0.0976
     30 H9          1.5893    1.9956    2.1415 H         1 <0>         0.0630
     31 H10        -1.0217   -0.3769   -0.0310 H         1 <0>         0.0607
     32 H11         0.5384   -0.3510   -0.8812 H         1 <0>         0.0603
     33 H12         1.2716   -2.5662    1.8861 H         1 <0>         0.0745
     34 H13         0.2488   -2.5211    0.4119 H         1 <0>         0.0772
     35 H14         4.3328   -1.6770   -1.4208 H         1 <0>         0.4061
     36 H15         6.4119    0.3483   -1.0892 H         1 <0>         0.1011
     37 H16         4.8307    0.0577   -3.6864 H         1 <0>         0.0872
     38 H17         4.8556    1.4863   -2.6236 H         1 <0>         0.1169
     39 H18         6.3963    1.7794   -4.5453 H         1 <0>         0.1318
     40 H19         7.2923    1.7309   -3.0087 H         1 <0>         0.1320
     41 H20         6.8975   -0.5549   -4.8049 H         1 <0>         0.4272
     42 H21         8.5632   -1.6137   -3.4364 H         1 <0>         0.1359
     43 H22         8.5124   -0.1795   -2.3844 H         1 <0>         0.1330
     44 H23         7.0755   -1.9897   -1.4877 H         1 <0>         0.1230
     45 H24         6.1522   -2.0115   -3.0102 H         1 <0>         0.0936
     46 H25         8.2696    0.3507   -4.7151 H         1 <0>         0.4285
@<TRIPOS>BOND
     1    1    8 1
     2    1    2 1
     3    1   25 1
     4    1   26 1
     5    2    3 1
     6    2   27 1
     7    2   28 1
     8    3    4 1
     9    3   29 1
    10    3   30 1
    11    4    5 1
    12    4   12 1
    13    4    6 1
    14    6    7 1
    15    6    8 1
    16    6    9 1
    17    8   31 1
    18    8   32 1
    19    9   10 1
    20    9   33 1
    21    9   34 1
    22   10   11 1
    23   10   12 1
    24   10   22 1
    25   12   13 am
    26   13   14 2
    27   13   15 am
    28   15   16 1
    29   15   35 1
    30   16   21 1
    31   16   17 1
    32   16   36 1
    33   17   18 1
    34   17   37 1
    35   17   38 1
    36   18   19 1
    37   18   39 1
    38   18   40 1
    39   19   20 1
    40   19   41 1
    41   19   46 1
    42   20   21 1
    43   20   42 1
    44   20   43 1
    45   21   44 1
    46   21   45 1
    47   22   23 2
    48   22   24 1
@<TRIPOS>MOLECULE
ZINC51713517
   40    41     0     0     0
SMALL
USER_CHARGES

@<TRIPOS>ATOM
      1 C1         -0.0193    1.4979    0.0122 C.3       1 <0>        -0.0922
      2 C2          1.4098    2.0450    0.0016 C.3       1 <0>        -0.1124
      3 C3          2.2121    1.3274    1.0944 C.3       1 <0>        -0.1000
      4 H1          1.6795    1.3934    2.0431 H         1 <0>         0.0797
      5 C4          2.3694   -0.1412    0.6939 C.3       1 <0>        -0.0857
      6 C5          1.0393   -0.7155    0.3028 C.2       1 <0>        -0.1586
      7 C6          0.0016   -0.0026    0.0020 C.2       1 <0>        -0.1545
      8 C7          3.5901    1.9779    1.2318 C.3       1 <0>         0.1414
      9 N1          4.3077    1.3692    2.3547 N.am      1 <0>        -0.7433
     10 C8          5.5506    1.7871    2.6661 C.2       1 <0>         0.7107
     11 O1          6.1124    2.6027    1.9607 O.2       1 <0>        -0.5830
     12 N2          6.1708    1.3010    3.7595 N.am      1 <0>        -0.6334
     13 C9          5.5603    0.2304    4.5635 C.3       1 <0>         0.0738
     14 C10         5.5718    0.6636    6.0339 C.3       1 <0>         0.0473
     15 O2          6.8976    1.0544    6.3991 O.3       1 <0>        -0.3478
     16 C11         7.3968    2.1803    5.6731 C.3       1 <0>         0.0584
     17 H2          6.7249    3.0278    5.8087 H         1 <0>         0.0919
     18 C12         7.4813    1.8209    4.1810 C.3       1 <0>         0.1096
     19 C13         8.7690    2.5393    6.1822 C.2       1 <0>         0.5274
     20 O3          9.3088    1.8415    7.0145 O.2       1 <0>        -0.5143
     21 N3          9.3964    3.6359    5.7127 N.am      1 <0>        -0.8492
     22 H3         -0.5328    1.8460    0.9084 H         1 <0>         0.0745
     23 H4         -0.5505    1.8579   -0.8689 H         1 <0>         0.0748
     24 H5          1.8663    1.8584   -0.9704 H         1 <0>         0.0698
     25 H6          1.3936    3.1162    0.2026 H         1 <0>         0.0710
     26 H7          3.0565   -0.2142   -0.1491 H         1 <0>         0.0772
     27 H8          2.7725   -0.7041    1.5358 H         1 <0>         0.0681
     28 H9          0.9418   -1.7906    0.2702 H         1 <0>         0.1035
     29 H10        -0.9057   -0.5198   -0.2730 H         1 <0>         0.1031
     30 H11         4.1568    1.8260    0.3132 H         1 <0>         0.0704
     31 H12         3.4711    3.0462    1.4129 H         1 <0>         0.0691
     32 H13         3.8883    0.6655    2.8740 H         1 <0>         0.3956
     33 H14         4.5333    0.0664    4.2372 H         1 <0>         0.0896
     34 H15         6.1343   -0.6889    4.4471 H         1 <0>         0.0846
     35 H16         4.8933    1.5056    6.1708 H         1 <0>         0.0608
     36 H17         5.2518   -0.1685    6.6611 H         1 <0>         0.1164
     37 H18         8.2454    1.0590    4.0267 H         1 <0>         0.0826
     38 H19         7.7270    2.7106    3.6013 H         1 <0>         0.1096
     39 H20         8.9646    4.1940    5.0470 H         1 <0>         0.4041
     40 H21        10.2796    3.8670    6.0403 H         1 <0>         0.4096
@<TRIPOS>BOND
     1    1    7 1
     2    1    2 1
     3    1   22 1
     4    1   23 1
     5    2    3 1
     6    2   24 1
     7    2   25 1
     8    3    4 1
     9    3    5 1
    10    3    8 1
    11    5    6 1
    12    5   26 1
    13    5   27 1
    14    6    7 2
    15    6   28 1
    16    7   29 1
    17    8    9 1
    18    8   30 1
    19    8   31 1
    20    9   10 am
    21    9   32 1
    22   10   11 2
    23   10   12 am
    24   12   18 1
    25   12   13 1
    26   13   14 1
    27   13   33 1
    28   13   34 1
    29   14   15 1
    30   14   35 1
    31   14   36 1
    32   15   16 1
    33   16   17 1
    34   16   18 1
    35   16   19 1
    36   18   37 1
    37   18   38 1
    38   19   20 2
    39   19   21 am
    40   21   39 1
    41   21   40 1
@<TRIPOS>MOLECULE
ZINC39958718
   42    45     0     0     0
SMALL
USER_CHARGES

@<TRIPOS>ATOM
      1 C1         -0.0188    1.5384    0.0105 C.3       1 <0>        -0.1250
      2 C2          1.4774    1.9387   -0.0016 C.3       1 <0>        -0.1241
      3 C3          2.1065    0.8811   -0.9423 C.3       1 <0>        -0.1301
      4 C4          1.3534   -0.4220   -0.6038 C.3       1 <0>         0.1373
      5 C5          0.0021   -0.0041    0.0020 C.3       1 <0>        -0.1350
      6 N1          1.1362   -1.2069   -1.8215 N.am      1 <0>        -0.7117
      7 C6          0.9741   -2.5426   -1.7425 C.2       1 <0>         0.4885
      8 O1          1.0082   -3.0947   -0.6632 O.2       1 <0>        -0.5149
      9 C7          0.7507   -3.3499   -2.9952 C.3       1 <0>         0.1878
     10 H1          1.5136   -3.1058   -3.7344 H         1 <0>         0.1328
     11 N2         -0.5932   -3.0637   -3.5455 N.3       1 <0>        -0.6642
     12 C8         -1.0627   -4.3800   -4.0554 C.3       1 <0>         0.2419
     13 H2         -0.6470   -4.5846   -5.0420 H         1 <0>         0.1433
     14 N3         -0.5150   -5.3232   -3.0442 N.3       1 <0>        -0.4744
     15 O2          0.7993   -4.7513   -2.6879 O.3       1 <0>        -0.2029
     16 C9         -2.5683   -4.4366   -4.0880 C.2       1 <0>        -0.0910
     17 C10        -3.2183   -4.6518   -5.2717 C.2       1 <0>        -0.0489
     18 C11        -4.6185   -4.7447   -5.1763 C.2       1 <0>        -0.1017
     19 C12        -5.6159   -4.4318   -6.0195 C.2       1 <0>        -0.1557
     20 C13        -6.8424   -4.4434   -5.3178 C.2       1 <0>         0.1372
     21 N4         -6.7032   -4.8680   -4.0940 N.2       1 <0>        -0.4644
     22 C14        -5.3076   -5.2399   -3.9147 C.3       1 <0>         0.0569
     23 H3         -5.2204   -6.3243   -3.8481 H         1 <0>         0.1496
     24 C15        -4.6209   -4.6017   -2.7448 C.2       1 <0>        -0.0811
     25 C16        -3.3314   -4.2677   -2.8550 C.2       1 <0>        -0.1449
     26 H4         -0.5054    1.9084    0.9130 H         1 <0>         0.0686
     27 H5         -0.5225    1.9180   -0.8785 H         1 <0>         0.0670
     28 H6          1.6056    2.9420   -0.4079 H         1 <0>         0.0725
     29 H7          1.9042    1.8684    0.9989 H         1 <0>         0.0717
     30 H8          1.9461    1.1545   -1.9852 H         1 <0>         0.0741
     31 H9          3.1710    0.7713   -0.7351 H         1 <0>         0.0753
     32 H10         1.9228   -1.0050    0.1201 H         1 <0>         0.0934
     33 H11        -0.0844   -0.3843    1.0199 H         1 <0>         0.0714
     34 H12        -0.8154   -0.3852   -0.6101 H         1 <0>         0.0664
     35 H13         1.1089   -0.7653   -2.6848 H         1 <0>         0.4052
     36 H14        -1.2103   -2.7127   -2.8285 H         1 <0>         0.3501
     37 H15        -1.1177   -5.3778   -2.2368 H         1 <0>         0.3484
     38 H16        -2.6946   -4.7433   -6.2118 H         1 <0>         0.1492
     39 H17        -5.4988   -4.2062   -7.0692 H         1 <0>         0.1500
     40 H18        -7.7850   -4.1358   -5.7459 H         1 <0>         0.1761
     41 H19        -5.1588   -4.4191   -1.8263 H         1 <0>         0.1382
     42 H20        -2.8331   -3.8491   -1.9930 H         1 <0>         0.1173
@<TRIPOS>BOND
     1    1    5 1
     2    1    2 1
     3    1   26 1
     4    1   27 1
     5    2    3 1
     6    2   28 1
     7    2   29 1
     8    3    4 1
     9    3   30 1
    10    3   31 1
    11    4    5 1
    12    4    6 1
    13    4   32 1
    14    5   33 1
    15    5   34 1
    16    6    7 am
    17    6   35 1
    18    7    8 2
    19    7    9 1
    20    9   10 1
    21    9   15 1
    22    9   11 1
    23   11   12 1
    24   11   36 1
    25   12   13 1
    26   12   14 1
    27   12   16 1
    28   14   15 1
    29   14   37 1
    30   16   25 1
    31   16   17 2
    32   17   18 1
    33   17   38 1
    34   18   22 1
    35   18   19 2
    36   19   20 1
    37   19   39 1
    38   20   21 2
    39   20   40 1
    40   21   22 1
    41   22   23 1
    42   22   24 1
    43   24   25 2
    44   24   41 1
    45   25   42 1
@<TRIPOS>MOLECULE
ZINC13232238
   36    37     0     0     0
SMALL
USER_CHARGES
2-[3-(carboxymethylsulfanyl)-5-(4-ethoxyphenyl)-1,2,4-triazol-4-yl]acetic acid
@<TRIPOS>ATOM
      1 C1        -10.0538   -5.8963    0.1266 C.3       1 <0>        -0.1506
      2 C2         -9.0801   -4.7244   -0.0125 C.3       1 <0>         0.0530
      3 O1         -7.7674   -5.1489    0.3599 O.3       1 <0>        -0.3171
      4 C3         -6.7768   -4.2214    0.2924 C.ar      1 <0>         0.1259
      5 C4         -5.4781   -4.5687    0.6405 C.ar      1 <0>        -0.1437
      6 C5         -4.4704   -3.6305    0.5738 C.ar      1 <0>        -0.0670
      7 C6         -4.7568   -2.3297    0.1555 C.ar      1 <0>        -0.0276
      8 C7         -6.0647   -1.9832   -0.1886 C.ar      1 <0>        -0.0442
      9 C8         -7.0658   -2.9286   -0.1242 C.ar      1 <0>        -0.2110
     10 C9         -3.6793   -1.3204    0.0830 C.2       1 <0>         0.2037
     11 N1         -3.8309   -0.0165    0.0738 N.2       1 <0>        -0.2840
     12 N2         -2.6833    0.5583    0.0082 N.2       1 <0>        -0.3085
     13 C10        -1.7288   -0.3435   -0.0369 C.2       1 <0>         0.1716
     14 N3         -2.3282   -1.5702    0.0123 N.pl3     1 <0>        -0.4237
     15 C11        -1.6697   -2.8787   -0.0066 C.3       1 <0>         0.0460
     16 C12        -1.3162   -3.2837    1.4012 C.2       1 <0>         0.4566
     17 O2         -1.5867   -2.5541    2.3256 O.co2     1 <0>        -0.6054
     18 S1          0.0022   -0.0292   -0.1350 S.3       1 <0>         0.0467
     19 C13        -0.0079    1.7806   -0.1592 C.3       1 <0>        -0.1430
     20 C14         1.4080    2.2898   -0.2429 C.2       1 <0>         0.4844
     21 O3          2.3294    1.5091   -0.2822 O.co2     1 <0>        -0.6198
     22 H1        -10.0629   -6.2403    1.1609 H         1 <0>         0.0649
     23 H2        -11.0550   -5.5725   -0.1575 H         1 <0>         0.0743
     24 H3         -9.7370   -6.7111   -0.5245 H         1 <0>         0.0646
     25 H4         -9.3968   -3.9096    0.6386 H         1 <0>         0.0610
     26 H5         -9.0710   -4.3804   -1.0468 H         1 <0>         0.0605
     27 H6         -5.2573   -5.5753    0.9636 H         1 <0>         0.1347
     28 H7         -3.4607   -3.9013    0.8450 H         1 <0>         0.1461
     29 H8         -6.2910   -0.9768   -0.5087 H         1 <0>         0.1366
     30 H9         -8.0771   -2.6624   -0.3941 H         1 <0>         0.1286
     31 H10        -2.3435   -3.6184   -0.4391 H         1 <0>         0.1027
     32 H11        -0.7615   -2.8198   -0.6066 H         1 <0>         0.1048
     33 H12        -0.5711    2.1293   -1.0248 H         1 <0>         0.0944
     34 H13        -0.4748    2.1536    0.7523 H         1 <0>         0.0965
     35 O4         -0.7010   -4.4548    1.6283 O.co2     1 <0>        -0.7539
     36 O5          1.6456    3.6105   -0.2739 O.co2     1 <0>        -0.7581
@<TRIPOS>BOND
     1    1    2 1
     2    1   22 1
     3    1   23 1
     4    1   24 1
     5    2    3 1
     6    2   25 1
     7    2   26 1
     8    3    4 1
     9    4    9 ar
    10    4    5 ar
    11    5    6 ar
    12    5   27 1
    13    6    7 ar
    14    6   28 1
    15    7    8 ar
    16    7   10 1
    17    8    9 ar
    18    8   29 1
    19    9   30 1
    20   10   14 1
    21   10   11 2
    22   11   12 1
    23   12   13 2
    24   13   14 1
    25   13   18 1
    26   14   15 1
    27   15   16 1
    28   15   31 1
    29   15   32 1
    30   16   17 2
    31   16   35 1
    32   18   19 1
    33   19   20 1
    34   19   33 1
    35   19   34 1
    36   20   21 2
    37   20   36 1
@<TRIPOS>MOLECULE
ZINC25762918
   36    38     0     0     0
SMALL
USER_CHARGES
2-[2-[(E)-[3-(2-pyridyl)-5-sulfanyl-1,2,4-triazol-4-yl]iminomethyl]phenoxy]acetic acid
@<TRIPOS>ATOM
      1 C1         -6.5155    0.6755   -2.2597 C.ar      1 <0>        -0.1851
      2 C2         -7.1713    0.8552   -1.0535 C.ar      1 <0>        -0.0655
      3 C3         -6.5024    0.6659    0.1408 C.ar      1 <0>        -0.2284
      4 C4         -5.1675    0.2945    0.1382 C.ar      1 <0>         0.1845
      5 C5         -4.4996    0.1115   -1.0805 C.ar      1 <0>        -0.0919
      6 C6         -5.1859    0.3112   -2.2808 C.ar      1 <0>        -0.0489
      7 C7         -3.0802   -0.2835   -1.0954 C.2       1 <0>         0.1531
      8 N1         -2.4446   -0.4629    0.0222 N.2       1 <0>        -0.1449
      9 N2         -1.0949   -0.8385    0.0080 N.pl3     1 <0>        -0.3404
     10 C8          0.0021   -0.0041    0.0020 C.2       1 <0>         0.1483
     11 N3          1.0692   -0.7708   -0.0180 N.2       1 <0>        -0.2669
     12 N4          0.7215   -2.0079   -0.0156 N.2       1 <0>        -0.3355
     13 C9         -0.5906   -2.1094   -0.0036 C.2       1 <0>         0.3860
     14 S1         -1.5234   -3.6043   -0.0033 S.3       1 <0>        -0.7945
     15 C10        -0.0180    1.4726    0.0101 C.ar      1 <0>         0.2374
     16 C11         1.1847    2.1820    0.0025 C.ar      1 <0>        -0.1453
     17 C12         1.1489    3.5645    0.0098 C.ar      1 <0>        -0.0776
     18 C13        -0.0878    4.1960    0.0245 C.ar      1 <0>        -0.1917
     19 C14        -1.2402    3.4324    0.0314 C.ar      1 <0>         0.1092
     20 N5         -1.1804    2.1163    0.0192 N.ar      1 <0>        -0.4627
     21 O1         -4.5094    0.1082    1.3112 O.3       1 <0>        -0.2370
     22 C15        -5.2549    0.3129    2.5130 C.3       1 <0>         0.0133
     23 C16        -4.3664    0.0624    3.7041 C.2       1 <0>         0.4654
     24 O2         -3.2130   -0.2585    3.5406 O.co2     1 <0>        -0.5848
     25 O3         -4.8562    0.1958    4.9467 O.co2     1 <0>        -0.7745
     26 H1         -7.0465    0.8258   -3.1881 H         1 <0>         0.1190
     27 H2         -8.2117    1.1447   -1.0460 H         1 <0>         0.1181
     28 H3         -7.0208    0.8080    1.0775 H         1 <0>         0.1300
     29 H4         -4.6768    0.1768   -3.2237 H         1 <0>         0.1268
     30 H5         -2.5591   -0.4264   -2.0535 H         1 <0>         0.1075
     31 H6          2.1293    1.6586   -0.0087 H         1 <0>         0.1434
     32 H7          2.0626    4.1402    0.0045 H         1 <0>         0.1317
     33 H8         -0.1487    5.2743    0.0309 H         1 <0>         0.1283
     34 H9         -2.2030    3.9216    0.0429 H         1 <0>         0.1515
     35 H10        -5.6251    1.3483    2.5430 H         1 <0>         0.0601
     36 H11        -6.1072   -0.3821    2.5387 H         1 <0>         0.0619
@<TRIPOS>BOND
     1    1    6 ar
     2    1    2 ar
     3    1   26 1
     4    2    3 ar
     5    2   27 1
     6    3    4 ar
     7    3   28 1
     8    4    5 ar
     9    4   21 1
    10    5    6 ar
    11    5    7 1
    12    6   29 1
    13    7    8 2
    14    7   30 1
    15    8    9 1
    16    9   13 1
    17    9   10 1
    18   10   11 2
    19   10   15 1
    20   11   12 1
    21   12   13 2
    22   13   14 1
    23   15   20 ar
    24   15   16 ar
    25   16   17 ar
    26   16   31 1
    27   17   18 ar
    28   17   32 1
    29   18   19 ar
    30   18   33 1
    31   19   20 ar
    32   19   34 1
    33   21   22 1
    34   22   23 1
    35   22   35 1
    36   22   36 1
    37   23   24 2
    38   23   25 1
@<TRIPOS>MOLECULE
ZINC37675891
   38    39     0     0     0
SMALL
USER_CHARGES

@<TRIPOS>ATOM
      1 C1         -0.0184    1.5028    0.0103 C.3       1 <0>        -0.0741
      2 C2          0.0021   -0.0041    0.0020 C.2       1 <0>         0.1673
      3 C3          0.0058   -0.7232   -1.1965 C.2       1 <0>        -0.3735
      4 C4          0.0255   -2.1133   -1.0306 C.2       1 <0>         0.2517
      5 S1          0.0362   -2.2889    0.6380 S.3       1 <0>         0.0254
      6 N1          0.0223   -0.6855    1.1103 N.2       1 <0>        -0.5482
      7 N2          0.0340   -3.0946   -1.9984 N.2       1 <0>        -0.9690
      8 S2          0.0578   -4.6910   -1.5587 S.o2      1 <0>         2.6880
      9 O1          1.3096   -4.9194   -0.9261 O.2       1 <0>        -1.0429
     10 O2         -1.1809   -4.9531   -0.9136 O.2       1 <0>        -1.0434
     11 N3          0.0629   -5.5831   -2.9539 N.pl3     1 <0>        -0.9834
     12 C5         -1.1989   -5.9983   -3.5815 C.3       1 <0>         0.1400
     13 C6         -1.1925   -5.5489   -5.0460 C.3       1 <0>        -0.1181
     14 H1         -1.1912   -4.4598   -5.0923 H         1 <0>         0.0939
     15 C7          0.0611   -6.0910   -5.7364 C.3       1 <0>        -0.0962
     16 C8          1.3075   -5.5252   -5.0520 C.3       1 <0>        -0.1061
     17 H2          2.1996   -5.8932   -5.5588 H         1 <0>         0.0650
     18 C9          1.3294   -5.9692   -3.5909 C.3       1 <0>         0.1368
     19 C10         1.2768   -3.9969   -5.1176 C.3       1 <0>        -0.1490
     20 C11        -2.4385   -6.0884   -5.7513 C.3       1 <0>        -0.1397
     21 C12        -0.0099   -0.0798   -2.5090 C.2       1 <0>         0.5637
     22 O3         -0.0273    1.1420   -2.5919 O.co2     1 <0>        -0.7317
     23 O4         -0.0057   -0.7627   -3.5257 O.co2     1 <0>        -0.6776
     24 H3          1.0042    1.8801    0.0026 H         1 <0>         0.0551
     25 H4         -0.5455    1.8639   -0.8728 H         1 <0>         0.1131
     26 H5         -0.5286    1.8543    0.9071 H         1 <0>         0.0355
     27 H6         -1.2916   -7.0833   -3.5327 H         1 <0>         0.0513
     28 H7         -2.0363   -5.5342   -3.0605 H         1 <0>         0.0836
     29 H8          0.0716   -7.1788   -5.6681 H         1 <0>         0.0514
     30 H9          0.0558   -5.7933   -6.7849 H         1 <0>         0.0562
     31 H10         2.1597   -5.4858   -3.0760 H         1 <0>         0.0842
     32 H11         1.4474   -7.0517   -3.5428 H         1 <0>         0.0504
     33 H12         0.3852   -3.6293   -4.6097 H         1 <0>         0.0957
     34 H13         2.1647   -3.5944   -4.6301 H         1 <0>         0.0513
     35 H14         1.2586   -3.6783   -6.1599 H         1 <0>         0.0394
     36 H15        -3.3308   -5.7038   -5.2573 H         1 <0>         0.0548
     37 H16        -2.4335   -5.7684   -6.7932 H         1 <0>         0.0517
     38 H17        -2.4388   -7.1775   -5.7057 H         1 <0>         0.0472
@<TRIPOS>BOND
     1    1    2 1
     2    1   24 1
     3    1   25 1
     4    1   26 1
     5    2    6 2
     6    2    3 1
     7    3    4 2
     8    3   21 1
     9    4    5 1
    10    4    7 1
    11    5    6 1
    12    7    8 1
    13    8    9 2
    14    8   10 2
    15    8   11 1
    16   11   18 1
    17   11   12 1
    18   12   13 1
    19   12   27 1
    20   12   28 1
    21   13   14 1
    22   13   15 1
    23   13   20 1
    24   15   16 1
    25   15   29 1
    26   15   30 1
    27   16   17 1
    28   16   18 1
    29   16   19 1
    30   18   31 1
    31   18   32 1
    32   19   33 1
    33   19   34 1
    34   19   35 1
    35   20   36 1
    36   20   37 1
    37   20   38 1
    38   21   22 2
    39   21   23 1
@<TRIPOS>MOLECULE
ZINC48480143
   27    28     0     0     0
SMALL
USER_CHARGES

@<TRIPOS>ATOM
      1 C1         -0.0225    1.8097    0.0120 C.3       1 <0>        -0.6489
      2 S1          0.0021   -0.0041    0.0020 S.o2      1 <0>         2.5653
      3 O1          0.8352   -0.4880    1.0465 O.2       1 <0>        -1.0035
      4 O2         -1.3147   -0.5105   -0.1678 O.2       1 <0>        -1.0125
      5 N1          0.7947   -0.4113   -1.3938 N.2       1 <0>        -1.0377
      6 C2          0.9770   -1.6531   -1.6935 C.2       1 <0>         0.4930
      7 O3          0.5218   -2.6197   -0.8697 O.3       1 <0>        -0.7273
      8 C3          1.6983   -2.0236   -2.9637 C.3       1 <0>         0.1530
      9 N2          2.0884   -0.8049   -3.6771 N.pl3     1 <0>        -0.4495
     10 C4          1.3526   -0.1193   -4.6180 C.2       1 <0>         0.1869
     11 N3          2.0773    0.9102   -4.9974 N.2       1 <0>        -0.2724
     12 N4          3.1974    0.9139   -4.3677 N.2       1 <0>        -0.3487
     13 C5          3.2567   -0.1072   -3.5435 C.2       1 <0>         0.4040
     14 S2          4.5950   -0.5063   -2.4691 S.3       1 <0>        -0.8114
     15 C6          0.0098   -0.4722   -5.1065 C.2       1 <0>        -0.0098
     16 C7         -0.8789    0.2914   -5.8203 C.2       1 <0>        -0.1661
     17 C8         -2.0911   -0.2597   -6.1703 C.2       1 <0>        -0.1410
     18 C9         -2.3698   -1.5365   -5.8004 C.2       1 <0>        -0.2142
     19 S3         -0.8835   -2.0081   -4.9313 S.3       1 <0>         0.0635
     20 H1          1.0001    2.1870    0.0043 H         1 <0>         0.1185
     21 H2         -0.5497    2.1708   -0.8711 H         1 <0>         0.1137
     22 H3         -0.5327    2.1613    0.9088 H         1 <0>         0.0996
     23 H4          2.5889   -2.6029   -2.7201 H         1 <0>         0.1172
     24 H5          1.0391   -2.6191   -3.5954 H         1 <0>         0.0876
     25 H6         -0.6327    1.3046   -6.1018 H         1 <0>         0.1369
     26 H7         -2.8117    0.3164   -6.7318 H         1 <0>         0.1260
     27 H8         -3.2600   -2.1185   -5.9880 H         1 <0>         0.1778
@<TRIPOS>BOND
     1    1    2 1
     2    1   20 1
     3    1   21 1
     4    1   22 1
     5    2    3 2
     6    2    4 2
     7    2    5 1
     8    5    6 2
     9    6    7 1
    10    6    8 1
    11    8    9 1
    12    8   23 1
    13    8   24 1
    14    9   13 1
    15    9   10 1
    16   10   11 2
    17   10   15 1
    18   11   12 1
    19   12   13 2
    20   13   14 1
    21   15   19 1
    22   15   16 2
    23   16   17 1
    24   16   25 1
    25   17   18 2
    26   17   26 1
    27   18   19 1
    28   18   27 1
@<TRIPOS>MOLECULE
ZINC18037259
   42    46     0     0     0
SMALL
USER_CHARGES

@<TRIPOS>ATOM
      1 C1          0.5883    1.7458    0.6933 C.ar      1 <0>        -0.1285
      2 C2          0.5593    1.7434   -0.6838 C.ar      1 <0>        -0.1297
      3 C3          1.1649    0.7127   -1.3979 C.ar      1 <0>        -0.0921
      4 C4          1.7995   -0.3143   -0.7215 C.ar      1 <0>        -0.1150
      5 C5          1.8295   -0.3116    0.6860 C.ar      1 <0>        -0.1121
      6 C6          1.2238    0.7178    1.3849 C.ar      1 <0>        -0.0908
      7 C7          2.5704   -1.5240    1.1153 C.2       1 <0>         0.4374
      8 O1          2.7960   -1.8550    2.2709 O.3       1 <0>        -0.5396
      9 C8          2.9690   -2.2280   -0.0387 C.2       1 <0>        -0.5096
     10 C9          3.7243   -3.4801   -0.0525 C.2       1 <0>         0.2846
     11 C10         3.1006   -4.8530    0.0558 C.3       1 <0>        -0.1353
     12 H1          2.5218   -5.1363   -0.8234 H         1 <0>         0.1358
     13 C11         4.3114   -5.7884    0.3620 C.3       1 <0>        -0.1337
     14 H2          4.2434   -6.7732   -0.1002 H         1 <0>         0.1324
     15 C12         5.4903   -4.9389   -0.1538 C.3       1 <0>        -0.0150
     16 H3          5.7626   -5.2466   -1.1634 H         1 <0>         0.0918
     17 N1          5.0093   -3.5543   -0.1642 N.2       1 <0>        -0.4443
     18 C13         6.6741   -5.0771    0.7685 C.2       1 <0>         0.5214
     19 O2          7.4977   -5.9552    0.5759 O.co2     1 <0>        -0.7049
     20 O3          6.8081   -4.3109    1.7074 O.co2     1 <0>        -0.6655
     21 C14         4.3080   -5.8229    1.8764 C.2       1 <0>         0.5409
     22 O4          5.2372   -6.1581    2.5792 O.2       1 <0>        -0.4242
     23 N2          3.1033   -5.4206    2.3090 N.am      1 <0>        -0.5347
     24 C15         2.3124   -4.9339    1.3508 C.2       1 <0>         0.5623
     25 O5          1.1459   -4.6347    1.4895 O.2       1 <0>        -0.4795
     26 C16         2.7169   -5.4844    3.6560 C.ar      1 <0>         0.1527
     27 C17         2.9533   -4.4072    4.4988 C.ar      1 <0>        -0.0553
     28 C18         2.5716   -4.4719    5.8246 C.ar      1 <0>        -0.0980
     29 C19         1.9538   -5.6097    6.3137 C.ar      1 <0>        -0.0214
     30 C20         1.7167   -6.6853    5.4763 C.ar      1 <0>        -0.1062
     31 C21         2.0920   -6.6235    4.1473 C.ar      1 <0>        -0.0121
     32 Cl1         1.7881   -7.9704    3.0950 Cl        1 <0>        -0.0528
     33 Cl2         1.4760   -5.6877    7.9808 Cl        1 <0>        -0.0698
     34 C22         2.5214   -1.5284   -1.1774 C.2       1 <0>         0.4355
     35 O6          2.6972   -1.8640   -2.3403 O.2       1 <0>        -0.5512
     36 H4          0.1197    2.5513    1.2392 H         1 <0>         0.1163
     37 H5          0.0642    2.5446   -1.2123 H         1 <0>         0.1163
     38 H6          1.1390    0.7146   -2.4776 H         1 <0>         0.1201
     39 H7          1.2443    0.7241    2.4647 H         1 <0>         0.1201
     40 H8          3.4356   -3.5190    4.1182 H         1 <0>         0.1627
     41 H9          2.7558   -3.6339    6.4805 H         1 <0>         0.1451
     42 H10         1.2344   -7.5721    5.8603 H         1 <0>         0.1456
@<TRIPOS>BOND
     1    1    6 ar
     2    1    2 ar
     3    1   36 1
     4    2    3 ar
     5    2   37 1
     6    3    4 ar
     7    3   38 1
     8    4   34 1
     9    4    5 ar
    10    5    6 ar
    11    5    7 1
    12    6   39 1
    13    7    8 1
    14    7    9 2
    15    9   34 1
    16    9   10 1
    17   10   11 1
    18   10   17 2
    19   11   24 1
    20   11   13 1
    21   11   12 1
    22   13   14 1
    23   13   15 1
    24   13   21 1
    25   15   16 1
    26   15   18 1
    27   15   17 1
    28   18   19 2
    29   18   20 1
    30   21   22 2
    31   21   23 am
    32   23   24 am
    33   23   26 1
    34   24   25 2
    35   26   31 ar
    36   26   27 ar
    37   27   28 ar
    38   27   40 1
    39   28   29 ar
    40   28   41 1
    41   29   30 ar
    42   29   33 1
    43   30   31 ar
    44   30   42 1
    45   31   32 1
    46   34   35 2
@<TRIPOS>MOLECULE
ZINC04481812
   40    42     0     0     0
SMALL
USER_CHARGES
4-(2,4-dihydroxyphenyl)-4-methyl-6-phenyl-hexahydropyrimidine-2-thione
@<TRIPOS>ATOM
      1 C1         -0.0718    0.9914    2.5068 C.3       1 <0>        -0.1550
      2 C2         -0.7375    1.5837    1.2630 C.3       1 <0>         0.2023
      3 C3         -0.0127    1.0858    0.0080 C.3       1 <0>        -0.1333
      4 C4         -0.7612    1.5971   -1.2275 C.3       1 <0>         0.1678
      5 H1         -0.7118    2.6855   -1.2589 H         1 <0>         0.0935
      6 N1         -2.1602    1.1729   -1.1512 N.pl3     1 <0>        -0.6652
      7 C5         -2.7690    0.9856    0.0292 C.2       1 <0>         0.5883
      8 S1         -4.4118    0.5039    0.0396 S.2       1 <0>        -0.6590
      9 N2         -2.1416    1.1603    1.2019 N.pl3     1 <0>        -0.6664
     10 C6         -0.1292    1.0269   -2.4711 C.ar      1 <0>        -0.1088
     11 C7         -0.4223   -0.2653   -2.8652 C.ar      1 <0>        -0.1032
     12 C8          0.1541   -0.7868   -4.0083 C.ar      1 <0>        -0.1137
     13 C9          1.0307   -0.0193   -4.7522 C.ar      1 <0>        -0.1084
     14 C10         1.3278    1.2710   -4.3553 C.ar      1 <0>        -0.1156
     15 C11         0.7481    1.7941   -3.2146 C.ar      1 <0>        -0.1032
     16 C12        -0.6681    3.0880    1.3212 C.ar      1 <0>        -0.1395
     17 C13        -1.8318    3.8334    1.3184 C.ar      1 <0>        -0.0762
     18 C14        -1.7717    5.2124    1.3773 C.ar      1 <0>        -0.1467
     19 C15        -0.5415    5.8530    1.4282 C.ar      1 <0>         0.1304
     20 C16         0.6273    5.1078    1.4254 C.ar      1 <0>        -0.1685
     21 C17         0.5642    3.7237    1.3719 C.ar      1 <0>         0.1373
     22 O1          1.7083    2.9904    1.3686 O.3       1 <0>        -0.4878
     23 O2         -0.4828    7.2097    1.4801 O.3       1 <0>        -0.4950
     24 H2          0.9722    1.3025    2.5432 H         1 <0>         0.0987
     25 H3         -0.5880    1.3461    3.3989 H         1 <0>         0.0695
     26 H4         -0.1255   -0.0965    2.4643 H         1 <0>         0.0704
     27 H5          0.0021   -0.0041    0.0020 H         1 <0>         0.0927
     28 H6          1.0089    1.4658    0.0003 H         1 <0>         0.1051
     29 H7         -2.6571    1.0246   -1.9710 H         1 <0>         0.4329
     30 H8         -2.6254    1.0028    2.0277 H         1 <0>         0.4328
     31 H9         -1.1042   -0.8662   -2.2818 H         1 <0>         0.1239
     32 H10        -0.0783   -1.7948   -4.3186 H         1 <0>         0.1274
     33 H11         1.4831   -0.4277   -5.6439 H         1 <0>         0.1265
     34 H12         2.0126    1.8707   -4.9365 H         1 <0>         0.1275
     35 H13         0.9802    2.8022   -2.9044 H         1 <0>         0.1241
     36 H14        -2.7899    3.3370    1.2741 H         1 <0>         0.1336
     37 H15        -2.6826    5.7926    1.3798 H         1 <0>         0.1357
     38 H16         1.5855    5.6044    1.4645 H         1 <0>         0.1401
     39 H17         2.0584    2.8117    0.4851 H         1 <0>         0.3892
     40 H18        -0.4469    7.6353    0.6125 H         1 <0>         0.3959
@<TRIPOS>BOND
     1    1    2 1
     2    1   24 1
     3    1   25 1
     4    1   26 1
     5    2    9 1
     6    2    3 1
     7    2   16 1
     8    3    4 1
     9    3   27 1
    10    3   28 1
    11    4    5 1
    12    4    6 1
    13    4   10 1
    14    6    7 1
    15    6   29 1
    16    7    8 2
    17    7    9 1
    18    9   30 1
    19   10   15 ar
    20   10   11 ar
    21   11   12 ar
    22   11   31 1
    23   12   13 ar
    24   12   32 1
    25   13   14 ar
    26   13   33 1
    27   14   15 ar
    28   14   34 1
    29   15   35 1
    30   16   21 ar
    31   16   17 ar
    32   17   18 ar
    33   17   36 1
    34   18   19 ar
    35   18   37 1
    36   19   20 ar
    37   19   23 1
    38   20   21 ar
    39   20   38 1
    40   21   22 1
    41   22   39 1
    42   23   40 1
@<TRIPOS>MOLECULE
ZINC35736704
   37    39     0     0     0
SMALL
USER_CHARGES

@<TRIPOS>ATOM
      1 C1         -0.0187    1.5258    0.0104 C.3       1 <0>        -0.1671
      2 C2          0.0021   -0.0041    0.0020 C.3       1 <0>         0.2425
      3 H1         -1.0205   -0.3814    0.0098 H         1 <0>         0.0989
      4 C3          0.7074   -0.4901   -1.2379 C.2       1 <0>        -0.1537
      5 C4          0.1765   -0.9427   -2.4000 C.2       1 <0>        -0.1461
      6 C5          1.0262   -1.3404   -3.4151 C.2       1 <0>        -0.1559
      7 C6          2.3653   -1.2661   -3.2185 C.2       1 <0>        -0.1682
      8 S1          2.4592   -0.6117   -1.5601 S.3       1 <0>         0.0358
      9 N1          0.7106   -0.4894    1.1889 N.pl3     1 <0>        -0.7473
     10 C7          0.0245   -0.6393    2.4027 C.ar      1 <0>         0.1340
     11 C8         -1.3257   -0.3338    2.4787 C.ar      1 <0>        -0.1198
     12 C9         -2.0026   -0.4808    3.6747 C.ar      1 <0>        -0.1296
     13 C10        -1.3330   -0.9348    4.8034 C.ar      1 <0>         0.1532
     14 C11         0.0187   -1.2429    4.7326 C.ar      1 <0>        -0.1876
     15 C12         0.6985   -1.1012    3.5329 C.ar      1 <0>         0.1854
     16 N2          2.0605   -1.4163    3.4573 N.pl3     1 <0>        -0.8789
     17 N3         -2.0238   -1.0817    6.0131 N.am      1 <0>        -0.6610
     18 C13        -3.3675   -1.1528    6.0265 C.2       1 <0>         0.5209
     19 O1         -3.9514   -1.2652    7.0837 O.2       1 <0>        -0.5340
     20 C14        -4.1540   -1.0938    4.7448 C.3       1 <0>        -0.1380
     21 C15        -3.4701   -0.1481    3.7574 C.3       1 <0>        -0.0704
     22 H2          1.0039    1.9031    0.0027 H         1 <0>         0.0613
     23 H3         -0.5459    1.8868   -0.8726 H         1 <0>         0.0683
     24 H4         -0.5289    1.8773    0.9072 H         1 <0>         0.0707
     25 H5         -0.8944   -0.9921   -2.5307 H         1 <0>         0.1354
     26 H6          0.6291   -1.7053   -4.3508 H         1 <0>         0.1365
     27 H7          3.1673   -1.5304   -3.8918 H         1 <0>         0.1872
     28 H8          1.6544   -0.7070    1.1351 H         1 <0>         0.3928
     29 H9         -1.8490    0.0197    1.6026 H         1 <0>         0.1295
     30 H10         0.5393   -1.5959    5.6105 H         1 <0>         0.1270
     31 H11         2.5362   -1.3134    2.6182 H         1 <0>         0.3930
     32 H12         2.5284   -1.7375    4.2439 H         1 <0>         0.4009
     33 H13        -1.5304   -1.1322    6.8466 H         1 <0>         0.4083
     34 H14        -4.2123   -2.0914    4.3096 H         1 <0>         0.1026
     35 H15        -5.1607   -0.7321    4.9541 H         1 <0>         0.1068
     36 H16        -3.5906    0.8805    4.0972 H         1 <0>         0.0792
     37 H17        -3.9240   -0.2607    2.7728 H         1 <0>         0.0875
@<TRIPOS>BOND
     1    1    2 1
     2    1   22 1
     3    1   23 1
     4    1   24 1
     5    2    3 1
     6    2    4 1
     7    2    9 1
     8    4    8 1
     9    4    5 2
    10    5    6 1
    11    5   25 1
    12    6    7 2
    13    6   26 1
    14    7    8 1
    15    7   27 1
    16    9   10 1
    17    9   28 1
    18   10   15 ar
    19   10   11 ar
    20   11   12 ar
    21   11   29 1
    22   12   21 1
    23   12   13 ar
    24   13   14 ar
    25   13   17 1
    26   14   15 ar
    27   14   30 1
    28   15   16 1
    29   16   31 1
    30   16   32 1
    31   17   18 am
    32   17   33 1
    33   18   19 2
    34   18   20 1
    35   20   21 1
    36   20   34 1
    37   20   35 1
    38   21   36 1
    39   21   37 1
@<TRIPOS>MOLECULE
ZINC40372552
   50    51     0     0     0
SMALL
USER_CHARGES

@<TRIPOS>ATOM
      1 C1          0.1813    1.4121   -0.2076 C.3       1 <0>        -0.1480
      2 C2          0.1136   -0.1148   -0.1385 C.3       1 <0>        -0.0955
      3 C3         -1.3491   -0.5579   -0.0680 C.3       1 <0>        -0.1116
      4 C4         -1.4168   -2.0848    0.0012 C.3       1 <0>        -0.1156
      5 C5         -0.6756   -2.5722    1.2477 C.3       1 <0>         0.2467
      6 C6          0.7872   -2.1292    1.1772 C.3       1 <0>        -0.1204
      7 C7          0.8548   -0.6023    1.1081 C.3       1 <0>        -0.1122
      8 C8         -0.7422   -4.0762    1.3158 C.2       1 <0>         0.3644
      9 N1         -1.3399   -4.7392    0.3820 N.2       1 <0>        -0.3918
     10 O1         -1.4025   -6.1524    0.4460 O.3       1 <0>        -0.4302
     11 N2         -0.1659   -4.7438    2.3736 N.pl3     1 <0>        -0.8709
     12 N3         -1.3017   -2.0011    2.4427 N.am      1 <0>        -0.7266
     13 C9         -2.5616   -2.3467    2.7739 C.2       1 <0>         0.5102
     14 O2         -3.2086   -3.0597    2.0364 O.2       1 <0>        -0.5059
     15 C10        -3.1664   -1.8472    4.0606 C.3       1 <0>        -0.1377
     16 C11        -4.5939   -2.3813    4.1943 C.3       1 <0>        -0.0692
     17 C12        -5.4648   -1.7929    3.0825 C.3       1 <0>        -0.1180
     18 C13        -6.8923   -2.3270    3.2161 C.3       1 <0>        -0.1178
     19 C14        -7.4623   -1.9240    4.5776 C.3       1 <0>        -0.1208
     20 C15        -6.5914   -2.5125    5.6895 C.3       1 <0>        -0.1191
     21 C16        -5.1639   -1.9784    5.5558 C.3       1 <0>        -0.1148
     22 H1          1.2234    1.7277   -0.2579 H         1 <0>         0.0547
     23 H2         -0.3468    1.7593   -1.0957 H         1 <0>         0.0557
     24 H3         -0.2846    1.8370    0.6815 H         1 <0>         0.0538
     25 H4          0.5795   -0.5398   -1.0276 H         1 <0>         0.0726
     26 H5         -1.8150   -0.1329    0.8211 H         1 <0>         0.0621
     27 H6         -1.8772   -0.2106   -0.9560 H         1 <0>         0.0661
     28 H7         -2.4589   -2.4004    0.0514 H         1 <0>         0.0916
     29 H8         -0.9509   -2.5098   -0.8879 H         1 <0>         0.0765
     30 H9          1.3152   -2.4765    2.0653 H         1 <0>         0.0730
     31 H10         1.2530   -2.5542    0.2881 H         1 <0>         0.0859
     32 H11         1.8969   -0.2866    1.0578 H         1 <0>         0.0722
     33 H12         0.3889   -0.1773    1.9972 H         1 <0>         0.0640
     34 H13        -1.8693   -6.5595   -0.2967 H         1 <0>         0.3986
     35 H14         0.2176   -4.2444    3.1114 H         1 <0>         0.3915
     36 H15        -0.1436   -5.7136    2.3808 H         1 <0>         0.4055
     37 H16        -0.8095   -1.3742    2.9956 H         1 <0>         0.4026
     38 H17        -2.5680   -2.1952    4.9026 H         1 <0>         0.0914
     39 H18        -3.1854   -0.7574    4.0542 H         1 <0>         0.0925
     40 H19        -4.5845   -3.4681    4.1116 H         1 <0>         0.0765
     41 H20        -5.4743   -0.7061    3.1651 H         1 <0>         0.0535
     42 H21        -5.0588   -2.0800    2.1125 H         1 <0>         0.0811
     43 H22        -7.5128   -1.9078    2.4240 H         1 <0>         0.0592
     44 H23        -6.8828   -3.4138    3.1335 H         1 <0>         0.0606
     45 H24        -7.4718   -0.8372    4.6603 H         1 <0>         0.0599
     46 H25        -8.4792   -2.3046    4.6728 H         1 <0>         0.0592
     47 H26        -6.9974   -2.2254    6.6594 H         1 <0>         0.0610
     48 H27        -6.5819   -3.5993    5.6068 H         1 <0>         0.0611
     49 H28        -4.5434   -2.3976    6.3479 H         1 <0>         0.0603
     50 H29        -5.1734   -0.8915    5.6385 H         1 <0>         0.0622
@<TRIPOS>BOND
     1    1    2 1
     2    1   22 1
     3    1   23 1
     4    1   24 1
     5    2    7 1
     6    2    3 1
     7    2   25 1
     8    3    4 1
     9    3   26 1
    10    3   27 1
    11    4    5 1
    12    4   28 1
    13    4   29 1
    14    5    6 1
    15    5    8 1
    16    5   12 1
    17    6    7 1
    18    6   30 1
    19    6   31 1
    20    7   32 1
    21    7   33 1
    22    8    9 2
    23    8   11 1
    24    9   10 1
    25   10   34 1
    26   11   35 1
    27   11   36 1
    28   12   13 am
    29   12   37 1
    30   13   14 2
    31   13   15 1
    32   15   16 1
    33   15   38 1
    34   15   39 1
    35   16   21 1
    36   16   17 1
    37   16   40 1
    38   17   18 1
    39   17   41 1
    40   17   42 1
    41   18   19 1
    42   18   43 1
    43   18   44 1
    44   19   20 1
    45   19   45 1
    46   19   46 1
    47   20   21 1
    48   20   47 1
    49   20   48 1
    50   21   49 1
    51   21   50 1
@<TRIPOS>MOLECULE
ZINC44862327
   43    43     0     0     0
SMALL
USER_CHARGES

@<TRIPOS>ATOM
      1 C1          0.5485    1.6129    0.8393 C.3       1 <0>        -0.1158
      2 C2          0.3234    0.1350    0.6488 C.ar      1 <0>        -0.0778
      3 C3          1.3803   -0.7466    0.7817 C.ar      1 <0>        -0.1182
      4 C4          1.1773   -2.1016    0.6077 C.ar      1 <0>        -0.0587
      5 C5         -0.0900   -2.5784    0.2995 C.ar      1 <0>         0.1226
      6 C6         -1.1495   -1.6904    0.1672 C.ar      1 <0>        -0.0852
      7 C7         -0.9409   -0.3370    0.3472 C.ar      1 <0>        -0.1190
      8 C8         -2.5264   -2.2034   -0.1677 C.3       1 <0>        -0.1114
      9 N1         -0.2989   -3.9506    0.1222 N.am      1 <0>        -0.6738
     10 C9          0.0202   -4.8136    1.1069 C.2       1 <0>         0.5223
     11 O1          0.5878   -4.4153    2.1020 O.2       1 <0>        -0.4964
     12 C10        -0.3281   -6.2735    0.9716 C.3       1 <0>        -0.0422
     13 H1         -1.2914   -6.3724    0.4712 H         1 <0>         0.1146
     14 C11         0.7497   -6.9807    0.1473 C.3       1 <0>        -0.0756
     15 C12         0.3812   -8.4568   -0.0147 C.3       1 <0>        -0.1477
     16 C13         0.8490   -6.3254   -1.2317 C.3       1 <0>        -0.1653
     17 C14        -0.4060   -6.9003    2.3398 C.2       1 <0>         0.3868
     18 N2          0.6224   -7.5084    2.8313 N.2       1 <0>        -0.4005
     19 O2          0.5491   -8.0973    4.1169 O.3       1 <0>        -0.4256
     20 N3         -1.5736   -6.8249    3.0663 N.pl3     1 <0>        -0.8691
     21 C15         2.3300   -3.0616    0.7517 C.3       1 <0>        -0.1093
     22 H2          0.4002    1.8708    1.8879 H         1 <0>         0.0715
     23 H3          1.5663    1.8665    0.5431 H         1 <0>         0.0674
     24 H4         -0.1584    2.1703    0.2246 H         1 <0>         0.0671
     25 H5          2.3657   -0.3752    1.0214 H         1 <0>         0.1251
     26 H6         -1.7653    0.3537    0.2485 H         1 <0>         0.1256
     27 H7         -3.0912   -2.3553    0.7521 H         1 <0>         0.0715
     28 H8         -3.0423   -1.4766   -0.7950 H         1 <0>         0.0707
     29 H9         -2.4415   -3.1495   -0.7023 H         1 <0>         0.0617
     30 H10        -0.6735   -4.2806   -0.7095 H         1 <0>         0.4080
     31 H11         1.7092   -6.8997    0.6580 H         1 <0>         0.0943
     32 H12        -0.5783   -8.5378   -0.5254 H         1 <0>         0.0537
     33 H13         1.1490   -8.9606   -0.6019 H         1 <0>         0.0630
     34 H14         0.3105   -8.9236    0.9677 H         1 <0>         0.0660
     35 H15         1.1292   -5.2783   -1.1171 H         1 <0>         0.0608
     36 H16         1.6041   -6.8408   -1.8253 H         1 <0>         0.0705
     37 H17        -0.1156   -6.3904   -1.7351 H         1 <0>         0.0606
     38 H18         1.3672   -8.5289    4.3990 H         1 <0>         0.4000
     39 H19        -2.3458   -6.3683    2.6972 H         1 <0>         0.3942
     40 H20        -1.6238   -7.2283    3.9470 H         1 <0>         0.4092
     41 H21         2.4781   -3.2960    1.8058 H         1 <0>         0.0845
     42 H22         2.1107   -3.9777    0.2031 H         1 <0>         0.0587
     43 H23         3.2350   -2.6056    0.3503 H         1 <0>         0.0613
@<TRIPOS>BOND
     1    1    2 1
     2    1   22 1
     3    1   23 1
     4    1   24 1
     5    2    7 ar
     6    2    3 ar
     7    3    4 ar
     8    3   25 1
     9    4    5 ar
    10    4   21 1
    11    5    6 ar
    12    5    9 1
    13    6    7 ar
    14    6    8 1
    15    7   26 1
    16    8   27 1
    17    8   28 1
    18    8   29 1
    19    9   10 am
    20    9   30 1
    21   10   11 2
    22   10   12 1
    23   12   13 1
    24   12   14 1
    25   12   17 1
    26   14   15 1
    27   14   16 1
    28   14   31 1
    29   15   32 1
    30   15   33 1
    31   15   34 1
    32   16   35 1
    33   16   36 1
    34   16   37 1
    35   17   18 2
    36   17   20 1
    37   18   19 1
    38   19   38 1
    39   20   39 1
    40   20   40 1
    41   21   41 1
    42   21   42 1
    43   21   43 1
@<TRIPOS>MOLECULE
ZINC44375945
   41    42     0     0     0
SMALL
USER_CHARGES

@<TRIPOS>ATOM
      1 C1          0.1145    1.5372    0.0343 C.3       1 <0>        -0.1139
      2 C2          0.0693    0.0312    0.0030 C.ar      1 <0>        -0.0966
      3 C3          0.0764   -0.6358   -1.2069 C.ar      1 <0>        -0.1065
      4 C4          0.0355   -2.0173   -1.2363 C.ar      1 <0>        -0.1089
      5 C5         -0.0131   -2.7354   -0.0553 C.ar      1 <0>        -0.0686
      6 C6         -0.0208   -2.0736    1.1569 C.ar      1 <0>        -0.1176
      7 C7          0.0264   -0.6869    1.1893 C.ar      1 <0>         0.0818
      8 O1          0.0250   -0.0336    2.3807 O.3       1 <0>        -0.2247
      9 C8         -1.1566    0.4510    2.8404 C.ar      1 <0>         0.1300
     10 C9         -2.3343    0.1674    2.1646 C.ar      1 <0>        -0.1537
     11 C10        -3.5366    0.6590    2.6303 C.ar      1 <0>        -0.1272
     12 C11        -3.5775    1.4419    3.7797 C.ar      1 <0>         0.1792
     13 C12        -2.4104    1.7327    4.4646 C.ar      1 <0>        -0.1341
     14 C13        -1.1904    1.2339    4.0018 C.ar      1 <0>        -0.1237
     15 C14         0.0574    1.5348    4.7295 C.2       1 <0>         0.5618
     16 O2          1.1183    1.1029    4.3215 O.2       1 <0>        -0.5166
     17 N1          0.0213    2.2882    5.8463 N.am      1 <0>        -0.8547
     18 N2         -4.8013    1.9370    4.2441 N.pl3     1 <0>        -0.8796
     19 C15        -0.0581   -4.2413   -0.0912 C.3       1 <0>        -0.0573
     20 C16        -1.3049   -4.6963   -0.8525 C.3       1 <0>        -0.1446
     21 C17         1.1918   -4.7722   -0.7960 C.3       1 <0>        -0.1454
     22 H1          1.1524    1.8691    0.0601 H         1 <0>         0.0760
     23 H2         -0.3718    1.9338   -0.8570 H         1 <0>         0.0685
     24 H3         -0.4046    1.8979    0.9223 H         1 <0>         0.0658
     25 H4          0.1136   -0.0773   -2.1306 H         1 <0>         0.1292
     26 H5          0.0411   -2.5368   -2.1831 H         1 <0>         0.1266
     27 H6         -0.0595   -2.6348    2.0788 H         1 <0>         0.1298
     28 H7         -2.3101   -0.4394    1.2716 H         1 <0>         0.1351
     29 H8         -4.4504    0.4352    2.0998 H         1 <0>         0.1297
     30 H9         -2.4433    2.3409    5.3565 H         1 <0>         0.1319
     31 H10        -0.8251    2.6327    6.1718 H         1 <0>         0.3981
     32 H11         0.8416    2.4860    6.3247 H         1 <0>         0.4049
     33 H12        -5.6199    1.7342    3.7647 H         1 <0>         0.3998
     34 H13        -4.8311    2.4830    5.0453 H         1 <0>         0.3990
     35 H14        -0.0929   -4.6281    0.9272 H         1 <0>         0.0789
     36 H15        -1.2701   -4.3094   -1.8709 H         1 <0>         0.0575
     37 H16        -1.3374   -5.7855   -0.8784 H         1 <0>         0.0598
     38 H17        -2.1953   -4.3180   -0.3504 H         1 <0>         0.0559
     39 H18         2.0800   -4.4481   -0.2537 H         1 <0>         0.0572
     40 H19         1.1593   -5.8614   -0.8219 H         1 <0>         0.0598
     41 H20         1.2266   -4.3854   -1.8144 H         1 <0>         0.0575
@<TRIPOS>BOND
     1    1    2 1
     2    1   22 1
     3    1   23 1
     4    1   24 1
     5    2    7 ar
     6    2    3 ar
     7    3    4 ar
     8    3   25 1
     9    4    5 ar
    10    4   26 1
    11    5    6 ar
    12    5   19 1
    13    6    7 ar
    14    6   27 1
    15    7    8 1
    16    8    9 1
    17    9   14 ar
    18    9   10 ar
    19   10   11 ar
    20   10   28 1
    21   11   12 ar
    22   11   29 1
    23   12   13 ar
    24   12   18 1
    25   13   14 ar
    26   13   30 1
    27   14   15 1
    28   15   16 2
    29   15   17 am
    30   17   31 1
    31   17   32 1
    32   18   33 1
    33   18   34 1
    34   19   20 1
    35   19   21 1
    36   19   35 1
    37   20   36 1
    38   20   37 1
    39   20   38 1
    40   21   39 1
    41   21   40 1
    42   21   41 1
@<TRIPOS>MOLECULE
ZINC08232438
   40    43     0     0     0
SMALL
USER_CHARGES
4-oxo-3-[2-(7,7,9-trioxo-7$l^{6}-thia-8-azabicyclo[4.3.0]nona-2,4,10-trien-8-yl)ethyl]phthalazine-1-carboxylic acid
@<TRIPOS>ATOM
      1 C1          2.9340    0.3452    6.4005 C.ar      1 <0>        -0.1001
      2 C2          3.3230    1.5731    5.8816 C.ar      1 <0>        -0.1287
      3 C3          2.7025    2.0955    4.7667 C.ar      1 <0>        -0.0638
      4 C4          1.6758    1.3794    4.1595 C.ar      1 <0>        -0.1483
      5 C5          1.2796    0.1290    4.6879 C.ar      1 <0>        -0.0335
      6 C6          1.9190   -0.3799    5.8129 C.ar      1 <0>        -0.0880
      7 C7          0.1877   -0.5810    4.0017 C.2       1 <0>         0.0840
      8 N1         -0.3656   -0.0356    2.9452 N.2       1 <0>        -0.2071
      9 N2         -0.0203    1.0939    2.4537 N.am      1 <0>        -0.3733
     10 C8          0.9649    1.8595    2.9664 C.2       1 <0>         0.5075
     11 O1          1.2559    2.9250    2.4547 O.2       1 <0>        -0.5213
     12 C9         -0.7288    1.5792    1.2668 C.3       1 <0>         0.0985
     13 C10        -0.0127    1.0858    0.0080 C.3       1 <0>         0.1262
     14 N3         -0.7213    1.5711   -1.1789 N.am      1 <0>        -0.9147
     15 C11        -0.5732    2.7597   -1.7833 C.2       1 <0>         0.5301
     16 O2          0.2170    3.5811   -1.3608 O.2       1 <0>        -0.4518
     17 C12        -1.3921    3.0410   -2.9702 C.ar      1 <0>        -0.1078
     18 C13        -1.4394    4.1854   -3.7850 C.ar      1 <0>        -0.0389
     19 C14        -2.2932    4.2364   -4.8629 C.ar      1 <0>        -0.0819
     20 C15        -3.1194    3.1688   -5.1674 C.ar      1 <0>        -0.0962
     21 C16        -3.0863    2.0309   -4.3744 C.ar      1 <0>         0.0054
     22 C17        -2.2400    1.9766   -3.3034 C.ar      1 <0>        -0.6169
     23 S1         -1.8799    0.7568   -2.0697 S.o2      1 <0>         2.6520
     24 O3         -1.2400   -0.3363   -2.7139 O.2       1 <0>        -0.9150
     25 O4         -3.0342    0.6179   -1.2526 O.2       1 <0>        -0.9080
     26 C18        -0.2787   -1.8898    4.4968 C.2       1 <0>         0.5231
     27 O5          0.2392   -2.3885    5.4763 O.co2     1 <0>        -0.6138
     28 H1          3.4327   -0.0467    7.2746 H         1 <0>         0.1293
     29 H2          4.1203    2.1253    6.3569 H         1 <0>         0.1269
     30 H3          3.0101    3.0513    4.3689 H         1 <0>         0.1338
     31 H4          1.6226   -1.3340    6.2233 H         1 <0>         0.1798
     32 H5         -0.7436    2.6691    1.2728 H         1 <0>         0.1090
     33 H6         -1.7514    1.2020    1.2746 H         1 <0>         0.1129
     34 H7          0.0021   -0.0041    0.0020 H         1 <0>         0.1113
     35 H8          1.0099    1.4631    0.0003 H         1 <0>         0.1074
     36 H9         -0.8025    5.0291   -3.5638 H         1 <0>         0.1470
     37 H10        -2.3188    5.1222   -5.4801 H         1 <0>         0.1455
     38 H11        -3.7853    3.2212   -6.0160 H         1 <0>         0.1480
     39 H12        -3.7264    1.1917   -4.6030 H         1 <0>         0.1473
     40 O6         -1.2791   -2.5325    3.8627 O.co2     1 <0>        -0.7159
@<TRIPOS>BOND
     1    1    6 ar
     2    1    2 ar
     3    1   28 1
     4    2    3 ar
     5    2   29 1
     6    3    4 ar
     7    3   30 1
     8    4   10 1
     9    4    5 ar
    10    5    6 ar
    11    5    7 1
    12    6   31 1
    13    7    8 2
    14    7   26 1
    15    8    9 1
    16    9   10 am
    17    9   12 1
    18   10   11 2
    19   12   13 1
    20   12   32 1
    21   12   33 1
    22   13   14 1
    23   13   34 1
    24   13   35 1
    25   14   23 1
    26   14   15 am
    27   15   16 2
    28   15   17 1
    29   17   22 ar
    30   17   18 ar
    31   18   19 ar
    32   18   36 1
    33   19   20 ar
    34   19   37 1
    35   20   21 ar
    36   20   38 1
    37   21   22 ar
    38   21   39 1
    39   22   23 1
    40   23   24 2
    41   23   25 2
    42   26   27 2
    43   26   40 1
@<TRIPOS>MOLECULE
ZINC16195090
   39    41     0     0     0
SMALL
USER_CHARGES
(5Z)-1-(2-fluorophenyl)-5-[(4-hydroxy-3-methoxy-5-nitro-phenyl)methylene]-2-thioxo-hexahydropyrimidine-4,6-dione
@<TRIPOS>ATOM
      1 C1          3.1658   -0.5974    3.7751 C.3       1 <0>         0.0273
      2 O1          2.6928   -1.1860    4.9883 O.3       1 <0>        -0.2990
      3 C2          2.1192   -2.4155    4.8953 C.ar      1 <0>         0.0025
      4 C3          2.0212   -3.0393    3.6691 C.ar      1 <0>        -0.0595
      5 C4          1.4238   -4.3057    3.5767 C.ar      1 <0>        -0.1911
      6 C5          0.9402   -4.9338    4.7344 C.ar      1 <0>         0.0087
      7 C6          1.0483   -4.3048    5.9532 C.ar      1 <0>        -0.1975
      8 C7          1.6357   -3.0480    6.0418 C.ar      1 <0>         0.3298
      9 O2          1.7390   -2.4335    7.2475 O.3       1 <0>        -0.6153
     10 N1          0.5382   -4.9686    7.1740 N.pl3     1 <0>         0.0763
     11 O3          0.0236   -6.0700    7.0985 O.2       1 <0>        -0.2668
     12 O4          0.6330   -4.4134    8.2539 O.3       1 <0>        -0.1729
     13 C8          1.3112   -4.9712    2.2789 C.2       1 <0>         0.1145
     14 C9          0.8603   -4.2678    1.1787 C.2       1 <0>        -0.3200
     15 C10         0.9401   -4.8325   -0.1834 C.2       1 <0>         0.5384
     16 O5          1.4078   -5.9389   -0.3749 O.3       1 <0>        -0.5286
     17 N2          0.4804   -4.0871   -1.2095 N.2       1 <0>        -0.6286
     18 C11        -0.0416   -2.8685   -1.0122 C.2       1 <0>         0.5545
     19 S1         -0.6056   -1.9991   -2.3749 S.2       1 <0>        -0.7136
     20 N3         -0.1409   -2.2915    0.1933 N.am      1 <0>        -0.5126
     21 C12         0.2777   -2.9180    1.3123 C.2       1 <0>         0.5514
     22 O6          0.1782   -2.3852    2.4014 O.2       1 <0>        -0.4785
     23 C13        -0.6981   -1.0090    0.2946 C.ar      1 <0>         0.1379
     24 C14         0.1159    0.1119    0.2086 C.ar      1 <0>        -0.0651
     25 C15        -0.4357    1.3743    0.3092 C.ar      1 <0>        -0.1248
     26 C16        -1.7979    1.5234    0.4953 C.ar      1 <0>        -0.0933
     27 C17        -2.6130    0.4100    0.5815 C.ar      1 <0>        -0.1516
     28 C18        -2.0674   -0.8571    0.4817 C.ar      1 <0>         0.1255
     29 F1         -2.8637   -1.9452    0.5655 F         1 <0>        -0.1337
     30 H1          3.6032    0.3883    3.9920 H         1 <0>         0.0886
     31 H2          2.3270   -0.4799    3.0732 H         1 <0>         0.0498
     32 H3          3.9312   -1.2475    3.3263 H         1 <0>         0.0420
     33 H4          2.3990   -2.5527    2.7820 H         1 <0>         0.1127
     34 H5          0.4836   -5.9103    4.6689 H         1 <0>         0.1285
     35 H6          1.5856   -6.0317    2.1790 H         1 <0>         0.1464
     36 H7          1.1800   -0.0029    0.0637 H         1 <0>         0.1265
     37 H8          0.1978    2.2464    0.2419 H         1 <0>         0.1286
     38 H9         -2.2259    2.5119    0.5735 H         1 <0>         0.1290
     39 H10        -3.6771    0.5298    0.7224 H         1 <0>         0.1335
@<TRIPOS>BOND
     1    1    2 1
     2    1   30 1
     3    1   31 1
     4    1   32 1
     5    2    3 1
     6    3    8 ar
     7    3    4 ar
     8    4    5 ar
     9    4   33 1
    10    5    6 ar
    11    5   13 1
    12    6    7 ar
    13    6   34 1
    14    7    8 ar
    15    7   10 1
    16    8    9 1
    17   10   11 2
    18   10   12 1
    19   13   14 2
    20   13   35 1
    21   14   21 1
    22   14   15 1
    23   15   16 1
    24   15   17 2
    25   17   18 1
    26   18   19 2
    27   18   20 1
    28   20   21 am
    29   20   23 1
    30   21   22 2
    31   23   28 ar
    32   23   24 ar
    33   24   25 ar
    34   24   36 1
    35   25   26 ar
    36   25   37 1
    37   26   27 ar
    38   26   38 1
    39   27   28 ar
    40   27   39 1
    41   28   29 1
@<TRIPOS>MOLECULE
ZINC41539671
   47    49     0     0     0
SMALL
USER_CHARGES

@<TRIPOS>ATOM
      1 C1          0.5969    1.1574    0.4988 C.3       1 <0>        -0.1761
      2 C2          0.3724   -0.3516    0.3819 C.3       1 <0>         0.1318
      3 N1         -1.0478   -0.6166    0.1391 N.am      1 <0>        -0.6150
      4 C3         -2.0746   -0.8297    1.1658 C.3       1 <0>         0.2588
      5 H1         -1.8263   -1.7033    1.7686 H         1 <0>         0.0793
      6 C4         -3.3702   -1.0617    0.4239 C.2       1 <0>        -0.5009
      7 C5         -3.0840   -0.9836   -0.8958 C.2       1 <0>         0.2595
      8 C6         -1.6429   -0.7021   -1.0646 C.2       1 <0>         0.5098
      9 O1         -1.0787   -0.5697   -2.1324 O.2       1 <0>        -0.5302
     10 O2         -3.9763   -1.1344   -1.9017 O.3       1 <0>        -0.6547
     11 C7         -4.6852   -1.3220    1.0200 C.2       1 <0>         0.5510
     12 O3         -5.3656   -0.3960    1.4211 O.2       1 <0>        -0.4942
     13 C8         -5.1826   -2.7058    1.1332 C.2       1 <0>        -0.2905
     14 C9         -4.4667   -3.8833    0.8197 C.2       1 <0>         0.1395
     15 N2         -5.2458   -4.9033    1.0515 N.2       1 <0>        -0.3179
     16 N3         -6.4796   -4.4356    1.5175 N.pl3     1 <0>        -0.3737
     17 C10        -6.4342   -3.0946    1.5713 C.2       1 <0>         0.1340
     18 C11        -7.5450   -2.1816    2.0225 C.3       1 <0>        -0.0963
     19 C12        -7.6255   -5.2688    1.8901 C.3       1 <0>         0.1019
     20 C13        -3.0511   -3.9488    0.3070 C.3       1 <0>        -0.0812
     21 C14        -2.1900    0.3894    2.0441 C.ar      1 <0>        -0.0112
     22 C15        -2.2887    1.6450    1.4742 C.ar      1 <0>        -0.0806
     23 C16        -2.3946    2.7633    2.2799 C.ar      1 <0>        -0.0572
     24 C17        -2.4022    2.6260    3.6553 C.ar      1 <0>        -0.0602
     25 C18        -2.3045    1.3704    4.2252 C.ar      1 <0>        -0.0552
     26 C19        -2.2029    0.2517    3.4195 C.ar      1 <0>        -0.1166
     27 N4         -2.5146    3.8236    4.5180 N.pl3     1 <0>         0.0415
     28 O4         -2.5998    4.9218    4.0196 O.2       1 <0>        -0.1702
     29 O5         -2.5213    3.7035    5.7210 O.3       1 <0>        -0.1729
     30 H2          1.6536    1.3546    0.6794 H         1 <0>         0.0622
     31 H3          0.2898    1.6432   -0.4274 H         1 <0>         0.0601
     32 H4          0.0073    1.5493    1.3275 H         1 <0>         0.0584
     33 H5          0.9621   -0.7435   -0.4469 H         1 <0>         0.0806
     34 H6          0.6796   -0.8374    1.3080 H         1 <0>         0.0743
     35 H7         -8.1652   -1.9137    1.1671 H         1 <0>         0.0818
     36 H8         -8.1549   -2.6923    2.7678 H         1 <0>         0.0646
     37 H9         -7.1184   -1.2786    2.4590 H         1 <0>         0.1041
     38 H10        -7.5624   -5.5210    2.9486 H         1 <0>         0.0719
     39 H11        -8.5491   -4.7217    1.7013 H         1 <0>         0.0845
     40 H12        -7.6174   -6.1836    1.2975 H         1 <0>         0.0884
     41 H13        -2.3579   -3.9032    1.1470 H         1 <0>         0.0724
     42 H14        -2.9040   -4.8828   -0.2353 H         1 <0>         0.0626
     43 H15        -2.8675   -3.1077   -0.3616 H         1 <0>         0.1029
     44 H16        -2.2828    1.7522    0.3996 H         1 <0>         0.1409
     45 H17        -2.4710    3.7443    1.8346 H         1 <0>         0.1476
     46 H18        -2.3100    1.2632    5.2999 H         1 <0>         0.1474
     47 H19        -2.1302   -0.7296    3.8647 H         1 <0>         0.1430
@<TRIPOS>BOND
     1    1    2 1
     2    1   30 1
     3    1   31 1
     4    1   32 1
     5    2    3 1
     6    2   33 1
     7    2   34 1
     8    3    8 am
     9    3    4 1
    10    4    5 1
    11    4    6 1
    12    4   21 1
    13    6    7 2
    14    6   11 1
    15    7    8 1
    16    7   10 1
    17    8    9 2
    18   11   12 2
    19   11   13 1
    20   13   17 2
    21   13   14 1
    22   14   15 2
    23   14   20 1
    24   15   16 1
    25   16   17 1
    26   16   19 1
    27   17   18 1
    28   18   35 1
    29   18   36 1
    30   18   37 1
    31   19   38 1
    32   19   39 1
    33   19   40 1
    34   20   41 1
    35   20   42 1
    36   20   43 1
    37   21   26 ar
    38   21   22 ar
    39   22   23 ar
    40   22   44 1
    41   23   24 ar
    42   23   45 1
    43   24   25 ar
    44   24   27 1
    45   25   26 ar
    46   25   46 1
    47   26   47 1
    48   27   28 2
    49   27   29 1
@<TRIPOS>MOLECULE
ZINC41633832
   46    50     0     0     0
SMALL
USER_CHARGES

@<TRIPOS>ATOM
      1 C1         -0.4785   -6.2855    3.3715 C.3       1 <0>        -0.0675
      2 C2         -0.0047   -5.7294    2.0535 C.2       1 <0>        -0.0330
      3 C3         -0.1983   -6.2919    0.8470 C.2       1 <0>        -0.2112
      4 C4          0.4077   -5.4395   -0.1044 C.2       1 <0>        -0.2175
      5 C5          0.9354   -4.4071    0.5776 C.2       1 <0>         0.0306
      6 O1          0.6775   -4.5850    1.8836 O.3       1 <0>        -0.1529
      7 C6          1.6840   -3.2450   -0.0226 C.3       1 <0>         0.3134
      8 H1          1.9846   -3.4932   -1.0405 H         1 <0>         0.0872
      9 C7          0.7924   -2.0303   -0.0442 C.2       1 <0>        -0.3960
     10 C8          0.3085   -1.3561   -1.0939 C.2       1 <0>         0.4252
     11 N1         -0.4987   -0.2592   -0.9099 N.pl3     1 <0>        -0.3543
     12 C9         -0.7773    0.1017    0.3729 C.2       1 <0>         0.2272
     13 S1          0.0974   -1.1170    1.3248 S.3       1 <0>         0.1086
     14 N2         -1.5492    1.1541    0.3738 N.2       1 <0>        -0.5254
     15 C10        -1.8011    1.5161   -0.8823 C.2       1 <0>         0.1976
     16 N3         -1.1917    0.6972   -1.6968 N.2       1 <0>        -0.3061
     17 O2          0.6191   -1.7600   -2.3553 O.3       1 <0>        -0.6778
     18 N4          2.8779   -2.9619    0.7852 N.3       1 <0>        -0.5293
     19 C11         3.5865   -1.7783    0.2804 C.3       1 <0>         0.0512
     20 C12         4.7147   -1.4104    1.2500 C.3       1 <0>         0.1331
     21 N5          5.5573   -2.5978    1.4585 N.pl3     1 <0>        -0.5775
     22 C13         4.9010   -3.8596    1.8331 C.3       1 <0>         0.1361
     23 C14         3.7655   -4.1311    0.8405 C.3       1 <0>         0.0412
     24 C15         6.9313   -2.5294    1.3067 C.ar      1 <0>         0.5695
     25 N6          7.4885   -1.3742    0.9742 N.ar      1 <0>        -0.5718
     26 C16         8.7986   -1.2746    0.8217 C.ar      1 <0>         0.1943
     27 C17         9.5890   -2.3968    1.0140 C.ar      1 <0>        -0.3074
     28 C18         8.9735   -3.5892    1.3611 C.ar      1 <0>         0.1928
     29 N7          7.6586   -3.6193    1.5026 N.ar      1 <0>        -0.5746
     30 H2         -0.1818   -5.6138    4.1770 H         1 <0>         0.0731
     31 H3         -1.5644   -6.3784    3.3573 H         1 <0>         0.0784
     32 H4         -0.0320   -7.2666    3.5334 H         1 <0>         0.0777
     33 H5         -0.7166   -7.2174    0.6442 H         1 <0>         0.1396
     34 H6          0.4409   -5.5889   -1.1735 H         1 <0>         0.1416
     35 H7         -2.4133    2.3543   -1.1807 H         1 <0>         0.2200
     36 H8          4.0072   -1.9973   -0.7010 H         1 <0>         0.0350
     37 H9          2.8896   -0.9440    0.1999 H         1 <0>         0.0988
     38 H10         5.3147   -0.6057    0.8251 H         1 <0>         0.0979
     39 H11         4.2900   -1.0911    2.2017 H         1 <0>         0.0755
     40 H12         5.6242   -4.6742    1.7937 H         1 <0>         0.0970
     41 H13         4.4943   -3.7757    2.8408 H         1 <0>         0.0734
     42 H14         3.1985   -5.0031    1.1662 H         1 <0>         0.0858
     43 H15         4.1838   -4.3173   -0.1486 H         1 <0>         0.0356
     44 H16         9.2470   -0.3303    0.5502 H         1 <0>         0.1631
     45 H17        10.6612   -2.3435    0.8955 H         1 <0>         0.1390
     46 H18         9.5606   -4.4820    1.5178 H         1 <0>         0.1626
@<TRIPOS>BOND
     1    1    2 1
     2    1   30 1
     3    1   31 1
     4    1   32 1
     5    2    6 1
     6    2    3 2
     7    3    4 1
     8    3   33 1
     9    4    5 2
    10    4   34 1
    11    5    6 1
    12    5    7 1
    13    7    8 1
    14    7    9 1
    15    7   18 1
    16    9   13 1
    17    9   10 2
    18   10   11 1
    19   10   17 1
    20   11   16 1
    21   11   12 1
    22   12   13 1
    23   12   14 2
    24   14   15 1
    25   15   16 2
    26   15   35 1
    27   18   23 1
    28   18   19 1
    29   19   20 1
    30   19   36 1
    31   19   37 1
    32   20   21 1
    33   20   38 1
    34   20   39 1
    35   21   22 1
    36   21   24 1
    37   22   23 1
    38   22   40 1
    39   22   41 1
    40   23   42 1
    41   23   43 1
    42   24   29 ar
    43   24   25 ar
    44   25   26 ar
    45   26   27 ar
    46   26   44 1
    47   27   28 ar
    48   27   45 1
    49   28   29 ar
    50   28   46 1
@<TRIPOS>MOLECULE
ZINC08971892
   47    51     0     0     0
SMALL
USER_CHARGES

@<TRIPOS>ATOM
      1 C1         -0.0173    1.3774    0.0111 C.ar      1 <0>        -0.1217
      2 C2          0.5238    0.9596   -1.1908 C.ar      1 <0>        -0.1138
      3 C3          1.7300    0.2869   -1.2101 C.ar      1 <0>        -0.1008
      4 C4          2.3994    0.0308   -0.0211 C.ar      1 <0>         0.1571
      5 C5          1.8538    0.4519    1.1841 C.ar      1 <0>        -0.1009
      6 C6          0.6470    1.1237    1.1970 C.ar      1 <0>        -0.1129
      7 N1          3.6234   -0.6520   -0.0373 N.am      1 <0>        -0.5350
      8 C7          3.6294   -1.9908    0.0520 C.2       1 <0>         0.5367
      9 O1          2.5758   -2.5832    0.1457 O.2       1 <0>        -0.5130
     10 C8          4.9135   -2.7729    0.0379 C.3       1 <0>        -0.1602
     11 C9          5.0300   -3.5843    1.3301 C.3       1 <0>        -0.0407
     12 C10         6.1534   -4.5823    1.2761 C.ar      1 <0>        -0.1322
     13 C11         6.6608   -5.0953    2.4583 C.ar      1 <0>        -0.0108
     14 C12         7.6848   -6.0217    2.4349 C.ar      1 <0>        -0.1144
     15 C13         8.2155   -6.4489    1.2312 C.ar      1 <0>        -0.0089
     16 C14         7.7213   -5.9403    0.0450 C.ar      1 <0>        -0.1894
     17 C15         6.6983   -5.0072    0.0685 C.ar      1 <0>         0.3209
     18 N2          6.1985   -4.4546   -1.1107 N.pl3     1 <0>        -0.5951
     19 C16         4.9034   -3.7423   -1.1494 C.3       1 <0>         0.1666
     20 H1          4.0718   -4.4425   -1.0710 H         1 <0>         0.0970
     21 C17         4.8698   -2.9825   -2.4863 C.3       1 <0>        -0.1379
     22 C18         5.7234   -3.9039   -3.4027 C.3       1 <0>        -0.1245
     23 C19         6.8286   -4.3865   -2.4301 C.3       1 <0>         0.1184
     24 N3          8.2181   -6.5604    3.7061 N.pl3     1 <0>         0.0528
     25 O2          7.7574   -6.1894    4.7605 O.2       1 <0>        -0.1843
     26 O3          9.1145   -7.3715    3.6901 O.3       1 <0>        -0.1858
     27 C20         6.0923   -1.8491   -0.0831 C.2       1 <0>         0.5170
     28 N4          5.9565   -0.5335   -0.1639 N.2       1 <0>        -0.6707
     29 C21         4.7832    0.0590   -0.1492 C.2       1 <0>         0.6390
     30 O4          4.7243    1.3999   -0.2417 O.3       1 <0>        -0.6311
     31 O5          7.2098   -2.3254   -0.1074 O.2       1 <0>        -0.5246
     32 H2         -0.9586    1.9068    0.0233 H         1 <0>         0.1221
     33 H3          0.0026    1.1591   -2.1155 H         1 <0>         0.1242
     34 H4          2.1518   -0.0398   -2.1491 H         1 <0>         0.1189
     35 H5          2.3721    0.2538    2.1107 H         1 <0>         0.1198
     36 H6          0.2221    1.4515    2.1342 H         1 <0>         0.1245
     37 H7          5.2032   -2.9015    2.1619 H         1 <0>         0.0834
     38 H8          4.0933   -4.1152    1.4999 H         1 <0>         0.0926
     39 H9          6.2531   -4.7693    3.4038 H         1 <0>         0.1463
     40 H10         9.0132   -7.1768    1.2183 H         1 <0>         0.1482
     41 H11         8.1319   -6.2698   -0.8981 H         1 <0>         0.1404
     42 H12         3.8496   -2.8982   -2.8607 H         1 <0>         0.0865
     43 H13         5.3291   -1.9990   -2.3868 H         1 <0>         0.0843
     44 H14         5.1330   -4.7436   -3.7694 H         1 <0>         0.0785
     45 H15         6.1525   -3.3400   -4.2310 H         1 <0>         0.0880
     46 H16         7.6541   -3.6750   -2.4161 H         1 <0>         0.0745
     47 H17         7.1863   -5.3724   -2.7271 H         1 <0>         0.0707
@<TRIPOS>BOND
     1    1    6 ar
     2    1    2 ar
     3    1   32 1
     4    2    3 ar
     5    2   33 1
     6    3    4 ar
     7    3   34 1
     8    4    5 ar
     9    4    7 1
    10    5    6 ar
    11    5   35 1
    12    6   36 1
    13    7   29 1
    14    7    8 am
    15    8    9 2
    16    8   10 1
    17   10   19 1
    18   10   11 1
    19   10   27 1
    20   11   12 1
    21   11   37 1
    22   11   38 1
    23   12   17 ar
    24   12   13 ar
    25   13   14 ar
    26   13   39 1
    27   14   15 ar
    28   14   24 1
    29   15   16 ar
    30   15   40 1
    31   16   17 ar
    32   16   41 1
    33   17   18 1
    34   18   23 1
    35   18   19 1
    36   19   20 1
    37   19   21 1
    38   21   22 1
    39   21   42 1
    40   21   43 1
    41   22   23 1
    42   22   44 1
    43   22   45 1
    44   23   46 1
    45   23   47 1
    46   24   25 2
    47   24   26 1
    48   27   28 1
    49   27   31 2
    50   28   29 2
    51   29   30 1
@<TRIPOS>MOLECULE
ZINC65644034
   37    39     0     0     0
SMALL
USER_CHARGES

@<TRIPOS>ATOM
      1 C1         -0.0184    1.5028    0.0103 C.3       1 <0>        -0.0712
      2 C2          0.0021   -0.0041    0.0020 C.2       1 <0>        -0.1331
      3 C3         -1.0392   -0.8719    0.0017 C.2       1 <0>        -0.1894
      4 C4         -0.7802   -2.2296   -0.0075 C.2       1 <0>        -0.0297
      5 C5          0.5074   -2.6532   -0.0160 C.2       1 <0>        -0.6943
      6 S1          1.4039   -1.1093   -0.0179 S.3       1 <0>         0.1461
      7 S2          1.1337   -4.3001   -0.0287 S.o2      1 <0>         2.6901
      8 O1          2.4446   -4.2402    0.5164 O.2       1 <0>        -0.9918
      9 O2          0.1166   -5.1256    0.5220 O.2       1 <0>        -0.9911
     10 N1          1.3003   -4.7483   -1.6141 N.2       1 <0>        -1.0485
     11 C6          1.7498   -5.9320   -1.9115 C.2       1 <0>         0.5550
     12 O3          2.0811   -6.7969   -0.9258 O.3       1 <0>        -0.6880
     13 C7          1.8986   -6.3324   -3.3273 C.2       1 <0>         0.1393
     14 C8          1.5982   -5.5337   -4.4503 C.2       1 <0>        -0.1845
     15 C9          1.8687   -6.2564   -5.5578 C.2       1 <0>         0.0220
     16 N2          2.3257   -7.4736   -5.1614 N.pl3     1 <0>        -0.3483
     17 N3          2.3408   -7.4963   -3.7609 N.2       1 <0>        -0.2373
     18 C10         2.7173   -8.5208   -6.0060 C.ar      1 <0>         0.2435
     19 C11         2.6618   -8.3610   -7.3842 C.ar      1 <0>        -0.1544
     20 C12         3.0490   -9.3949   -8.2140 C.ar      1 <0>        -0.0217
     21 C13         3.4916  -10.5884   -7.6736 C.ar      1 <0>        -0.0806
     22 C14         3.5476  -10.7508   -6.3015 C.ar      1 <0>        -0.0231
     23 C15         3.1672   -9.7186   -5.4664 C.ar      1 <0>        -0.1298
     24 N4          3.9058  -11.6945   -8.5658 N.pl3     1 <0>         0.0413
     25 O4          3.8570  -11.5539   -9.7656 O.2       1 <0>        -0.1674
     26 O5          4.2929  -12.7384   -8.0947 O.3       1 <0>        -0.1643
     27 H1          1.0042    1.8801    0.0026 H         1 <0>         0.0740
     28 H2         -0.5455    1.8639   -0.8728 H         1 <0>         0.0827
     29 H3         -0.5286    1.8543    0.9071 H         1 <0>         0.0817
     30 H4         -2.0560   -0.5079    0.0090 H         1 <0>         0.1363
     31 H5         -1.5916   -2.9424   -0.0076 H         1 <0>         0.1442
     32 H6          1.2186   -4.5228   -4.4281 H         1 <0>         0.1713
     33 H7          1.7441   -5.9259   -6.5784 H         1 <0>         0.1825
     34 H8          2.3159   -7.4292   -7.8068 H         1 <0>         0.1539
     35 H9          3.0057   -9.2713   -9.2860 H         1 <0>         0.1598
     36 H10         3.8930  -11.6843   -5.8825 H         1 <0>         0.1603
     37 H11         3.2154   -9.8445   -4.3949 H         1 <0>         0.1644
@<TRIPOS>BOND
     1    1    2 1
     2    1   27 1
     3    1   28 1
     4    1   29 1
     5    2    6 1
     6    2    3 2
     7    3    4 1
     8    3   30 1
     9    4    5 2
    10    4   31 1
    11    5    6 1
    12    5    7 1
    13    7    8 2
    14    7    9 2
    15    7   10 1
    16   10   11 2
    17   11   12 1
    18   11   13 1
    19   13   17 2
    20   13   14 1
    21   14   15 2
    22   14   32 1
    23   15   16 1
    24   15   33 1
    25   16   17 1
    26   16   18 1
    27   18   23 ar
    28   18   19 ar
    29   19   20 ar
    30   19   34 1
    31   20   21 ar
    32   20   35 1
    33   21   22 ar
    34   21   24 1
    35   22   23 ar
    36   22   36 1
    37   23   37 1
    38   24   25 2
    39   24   26 1
@<TRIPOS>MOLECULE
ZINC12364487
   37    38     0     0     0
SMALL
USER_CHARGES
[acetoxy-(2-hydroxy-5-nitro-phenyl)-pyrimidin-2-yl-methyl] acetate
@<TRIPOS>ATOM
      1 C1         -1.1391    3.0454   -2.6859 C.3       1 <0>        -0.1446
      2 C2         -2.0979    2.2116   -1.8756 C.2       1 <0>         0.4528
      3 O1         -3.0926    1.7610   -2.3926 O.2       1 <0>        -0.5003
      4 O2         -1.8468    1.9696   -0.5794 O.3       1 <0>        -0.3322
      5 C3         -2.8136    1.1589    0.1392 C.3       1 <0>         0.4546
      6 C4         -2.3677    0.9951    1.5694 C.ar      1 <0>        -0.2627
      7 C5         -1.2374    1.6494    2.0205 C.ar      1 <0>         0.0595
      8 C6         -0.8311    1.5041    3.3338 C.ar      1 <0>        -0.1847
      9 C7         -1.5516    0.7001    4.1981 C.ar      1 <0>        -0.0055
     10 C8         -2.6792    0.0398    3.7506 C.ar      1 <0>        -0.2480
     11 C9         -3.0889    0.1836    2.4327 C.ar      1 <0>         0.3177
     12 N1          0.3768    2.2105    3.8159 N.pl3     1 <0>         0.0696
     13 O3          1.0119    2.9192    3.0557 O.2       1 <0>        -0.2175
     14 O4          0.7357    2.0832    4.9729 O.3       1 <0>        -0.2255
     15 C10        -4.1596    1.8359    0.1071 C.ar      1 <0>         0.3416
     16 N2         -4.2588    3.0857    0.5136 N.ar      1 <0>        -0.5031
     17 C11        -5.4233    3.7141    0.4952 C.ar      1 <0>         0.1398
     18 C12        -6.5479    3.0369    0.0509 C.ar      1 <0>        -0.2326
     19 C13        -6.4047    1.7221   -0.3636 C.ar      1 <0>         0.1440
     20 N3         -5.2071    1.1608   -0.3217 N.ar      1 <0>        -0.4444
     21 O5         -2.9132   -0.1462   -0.4892 O.3       1 <0>        -0.3065
     22 C14        -1.7626   -0.7870   -0.7489 C.2       1 <0>         0.4543
     23 O6         -0.7060   -0.2338   -0.5551 O.2       1 <0>        -0.5027
     24 C15        -1.7886   -2.1963   -1.2820 C.3       1 <0>        -0.1417
     25 H1         -0.1589    2.5688   -2.6922 H         1 <0>         0.1019
     26 H2         -1.5075    3.1321   -3.7082 H         1 <0>         0.0977
     27 H3         -1.0576    4.0383   -2.2437 H         1 <0>         0.1004
     28 H4         -0.6734    2.2784    1.3477 H         1 <0>         0.1374
     29 H5         -1.2322    0.5882    5.2236 H         1 <0>         0.1275
     30 H6         -3.2418   -0.5877    4.4260 H         1 <0>         0.1247
     31 H7         -5.4970    4.7395    0.8262 H         1 <0>         0.1678
     32 H8         -7.5125    3.5221    0.0279 H         1 <0>         0.1452
     33 H9         -7.2590    1.1634   -0.7164 H         1 <0>         0.1663
     34 H10        -2.8223   -2.5245   -1.3909 H         1 <0>         0.0914
     35 H11        -1.2936   -2.2268   -2.2526 H         1 <0>         0.0980
     36 H12        -1.2688   -2.8569   -0.5881 H         1 <0>         0.1022
     37 O7         -4.1980   -0.4651    1.9901 O.3       1 <0>        -0.6422
@<TRIPOS>BOND
     1    1    2 1
     2    1   25 1
     3    1   26 1
     4    1   27 1
     5    2    3 2
     6    2    4 1
     7    4    5 1
     8    5    6 1
     9    5   15 1
    10    5   21 1
    11    6   11 ar
    12    6    7 ar
    13    7    8 ar
    14    7   28 1
    15    8    9 ar
    16    8   12 1
    17    9   10 ar
    18    9   29 1
    19   10   11 ar
    20   10   30 1
    21   11   37 1
    22   12   13 2
    23   12   14 1
    24   15   20 ar
    25   15   16 ar
    26   16   17 ar
    27   17   18 ar
    28   17   31 1
    29   18   19 ar
    30   18   32 1
    31   19   20 ar
    32   19   33 1
    33   21   22 1
    34   22   23 2
    35   22   24 1
    36   24   34 1
    37   24   35 1
    38   24   36 1
@<TRIPOS>MOLECULE
ZINC38534519
   46    47     0     0     0
SMALL
USER_CHARGES

@<TRIPOS>ATOM
      1 C1         -0.0187    1.5258    0.0104 C.3       1 <0>        -0.1508
      2 C2          0.0021   -0.0041    0.0020 C.3       1 <0>         0.0593
      3 O1          0.6709   -0.4649   -1.1737 O.3       1 <0>        -0.3348
      4 C3          0.7759   -1.7986   -1.3348 C.2       1 <0>         0.5599
      5 O2          0.3121   -2.5498   -0.4997 O.2       1 <0>        -0.5009
      6 C4          1.4531   -2.3463   -2.5237 C.2       1 <0>        -0.0997
      7 C5          1.6211   -3.6726   -2.8077 C.2       1 <0>         0.1226
      8 N1          2.2848   -3.7400   -3.9788 N.pl3     1 <0>        -0.3400
      9 N2          2.5123   -2.4200   -4.3930 N.2       1 <0>        -0.0578
     10 N3          2.0052   -1.6259   -3.5155 N.2       1 <0>        -0.1840
     11 C6          2.6909   -4.9586   -4.6834 C.3       1 <0>         0.1279
     12 H1          2.7883   -4.7747   -5.7533 H         1 <0>         0.1421
     13 C7          4.0085   -5.5284   -4.0948 C.3       1 <0>        -0.1149
     14 C8          3.5215   -6.3300   -2.8693 C.3       1 <0>         0.0774
     15 H2          3.6249   -5.7271   -1.9671 H         1 <0>         0.0743
     16 N4          2.1053   -6.6542   -3.0945 N.am      1 <0>        -0.5825
     17 C9          1.6995   -6.1164   -4.4070 C.3       1 <0>         0.1002
     18 C10         1.3095   -7.3313   -2.2432 C.2       1 <0>         0.6716
     19 O3          1.7526   -7.7302   -1.1844 O.2       1 <0>        -0.5440
     20 O4          0.0236   -7.5657   -2.5660 O.3       1 <0>        -0.3632
     21 C11        -0.7620   -8.2894   -1.6167 C.3       1 <0>         0.1352
     22 C12        -0.8037   -7.5184   -0.2958 C.3       1 <0>        -0.1855
     23 C13        -2.1846   -8.4573   -2.1543 C.3       1 <0>        -0.1361
     24 C14        -0.1389   -9.6671   -1.3836 C.3       1 <0>        -0.1851
     25 C15         4.3254   -7.5974   -2.7335 C.2       1 <0>         0.5011
     26 O5          5.3479   -7.6026   -2.0694 O.co2     1 <0>        -0.6877
     27 O6          3.9532   -8.6177   -3.2877 O.co2     1 <0>        -0.6779
     28 H3          1.0039    1.9031    0.0027 H         1 <0>         0.0676
     29 H4         -0.5459    1.8868   -0.8726 H         1 <0>         0.0669
     30 H5         -0.5289    1.8773    0.9072 H         1 <0>         0.0785
     31 H6          0.5293   -0.3651    0.8851 H         1 <0>         0.0693
     32 H7         -1.0205   -0.3814    0.0098 H         1 <0>         0.0683
     33 H8          1.2867   -4.5065   -2.2084 H         1 <0>         0.1994
     34 H9          4.5003   -6.1837   -4.8137 H         1 <0>         0.1085
     35 H10         4.6745   -4.7218   -3.7882 H         1 <0>         0.0926
     36 H11         0.6779   -5.7388   -4.3637 H         1 <0>         0.0873
     37 H12         1.7888   -6.8840   -5.1756 H         1 <0>         0.1040
     38 H13        -1.2476   -6.5368   -0.4619 H         1 <0>         0.0576
     39 H14        -1.4030   -8.0703    0.4283 H         1 <0>         0.0656
     40 H15         0.2097   -7.3987    0.0872 H         1 <0>         0.0895
     41 H16        -2.1549   -9.0066   -3.0953 H         1 <0>         0.0645
     42 H17        -2.7838   -9.0093   -1.4302 H         1 <0>         0.0764
     43 H18        -2.6285   -7.4758   -2.3204 H         1 <0>         0.0630
     44 H19         0.8745   -9.5475   -1.0006 H         1 <0>         0.0923
     45 H20        -0.7382  -10.2191   -0.6594 H         1 <0>         0.0637
     46 H21        -0.1092  -10.2164   -2.3246 H         1 <0>         0.0586
@<TRIPOS>BOND
     1    1    2 1
     2    1   28 1
     3    1   29 1
     4    1   30 1
     5    2    3 1
     6    2   31 1
     7    2   32 1
     8    3    4 1
     9    4    5 2
    10    4    6 1
    11    6   10 1
    12    6    7 2
    13    7    8 1
    14    7   33 1
    15    8    9 1
    16    8   11 1
    17    9   10 2
    18   11   12 1
    19   11   17 1
    20   11   13 1
    21   13   14 1
    22   13   34 1
    23   13   35 1
    24   14   15 1
    25   14   16 1
    26   14   25 1
    27   16   17 1
    28   16   18 am
    29   17   36 1
    30   17   37 1
    31   18   19 2
    32   18   20 1
    33   20   21 1
    34   21   22 1
    35   21   23 1
    36   21   24 1
    37   22   38 1
    38   22   39 1
    39   22   40 1
    40   23   41 1
    41   23   42 1
    42   23   43 1
    43   24   44 1
    44   24   45 1
    45   24   46 1
    46   25   26 2
    47   25   27 1
@<TRIPOS>MOLECULE
ZINC49550631
   36    39     0     0     0
SMALL
USER_CHARGES

@<TRIPOS>ATOM
      1 C1          0.1057    1.5575    0.1103 C.ar      1 <0>        -0.1318
      2 C2          0.3138    0.5830    1.0675 C.ar      1 <0>        -0.0993
      3 C3          1.3974   -0.2749    0.9624 C.ar      1 <0>         0.1451
      4 C4          2.2814   -0.1503   -0.1197 C.ar      1 <0>         0.0077
      5 C5          2.0608    0.8381   -1.0814 C.ar      1 <0>        -0.1008
      6 C6          0.9764    1.6850   -0.9613 C.ar      1 <0>         0.1027
      7 F1          0.7633    2.6414   -1.8914 F         1 <0>        -0.1334
      8 C7          3.4373   -1.0574   -0.2408 C.2       1 <0>         0.4562
      9 O1          3.2457   -2.3953   -0.2778 O.3       1 <0>        -0.5985
     10 N1          4.6523   -0.5662   -0.3126 N.2       1 <0>        -0.6025
     11 C8          5.7182   -1.4026   -0.4242 C.2       1 <0>         0.3752
     12 N2          5.7611   -2.7330   -0.4844 N.2       1 <0>        -0.3442
     13 N3          6.8531   -3.3555   -0.5887 N.2       1 <0>        -0.2282
     14 C9          8.0150   -2.7329   -0.6445 C.2       1 <0>        -0.0486
     15 S1          7.4661   -1.0319   -0.5405 S.3       1 <0>        -0.1352
     16 C10         9.4082   -3.2940   -0.7676 C.3       1 <0>         0.2017
     17 H1         10.1393   -2.5285   -0.5078 H         1 <0>         0.0953
     18 C11         9.6509   -3.7811   -2.2123 C.3       1 <0>        -0.1421
     19 C12        10.4645   -5.0849   -1.9882 C.3       1 <0>        -0.1542
     20 C13         9.8332   -5.6029   -0.6714 C.3       1 <0>         0.0499
     21 O2          9.5562   -4.4224    0.1022 O.3       1 <0>        -0.3625
     22 N4          1.6089   -1.2614    1.9322 N.pl3     1 <0>        -0.3313
     23 C14         0.7950   -1.5902    2.9594 C.2       1 <0>         0.2036
     24 N5          1.3736   -2.5600    3.6179 N.2       1 <0>        -0.3376
     25 N6          2.4974   -2.8670    3.0776 N.2       1 <0>        -0.0595
     26 N7          2.7112   -2.1272    2.0432 N.2       1 <0>         0.0159
     27 H2         -0.7425    2.2207    0.1948 H         1 <0>         0.1491
     28 H3         -0.3688    0.4899    1.8992 H         1 <0>         0.1456
     29 H4          2.7372    0.9404   -1.9171 H         1 <0>         0.1527
     30 H5          8.7068   -3.9944   -2.7136 H         1 <0>         0.0839
     31 H6         10.2339   -3.0519   -2.7748 H         1 <0>         0.0843
     32 H7         10.3073   -5.7911   -2.8036 H         1 <0>         0.0822
     33 H8         11.5248   -4.8687   -1.8572 H         1 <0>         0.0772
     34 H9          8.9104   -6.1437   -0.8813 H         1 <0>         0.0645
     35 H10        10.5368   -6.2450   -0.1415 H         1 <0>         0.0835
     36 H11        -0.1566   -1.1359    3.1931 H         1 <0>         0.2335
@<TRIPOS>BOND
     1    1    6 ar
     2    1    2 ar
     3    1   27 1
     4    2    3 ar
     5    2   28 1
     6    3    4 ar
     7    3   22 1
     8    4    5 ar
     9    4    8 1
    10    5    6 ar
    11    5   29 1
    12    6    7 1
    13    8    9 1
    14    8   10 2
    15   10   11 1
    16   11   15 1
    17   11   12 2
    18   12   13 1
    19   13   14 2
    20   14   15 1
    21   14   16 1
    22   16   17 1
    23   16   21 1
    24   16   18 1
    25   18   19 1
    26   18   30 1
    27   18   31 1
    28   19   20 1
    29   19   32 1
    30   19   33 1
    31   20   21 1
    32   20   34 1
    33   20   35 1
    34   22   26 1
    35   22   23 1
    36   23   24 2
    37   23   36 1
    38   24   25 1
    39   25   26 2
@<TRIPOS>MOLECULE
ZINC63823693
   46    50     0     0     0
SMALL
USER_CHARGES

@<TRIPOS>ATOM
      1 C1         -0.1981    1.7689    0.5688 C.3       1 <0>         0.0663
      2 C2          1.2607    2.1641    0.3277 C.3       1 <0>         0.0543
      3 N1          2.1014    1.5962    1.3909 N.3       1 <0>        -0.5026
      4 C3          1.9918    0.1310    1.4190 C.3       1 <0>         0.0704
      5 C4          0.5329   -0.2642    1.6601 C.3       1 <0>         0.0503
      6 N2         -0.3078    0.3037    0.5969 N.3       1 <0>        -0.5143
      7 C5         -1.7069   -0.1166    0.7511 C.3       1 <0>         0.2678
      8 H1         -2.0557    0.2160    1.7288 H         1 <0>         0.1254
      9 C6         -1.7537   -1.6247    0.7204 C.2       1 <0>         0.1290
     10 N3         -1.2391   -2.6050    1.3902 N.2       1 <0>        -0.4739
     11 C7         -1.6666   -3.7716    0.8711 C.2       1 <0>         0.3349
     12 N4         -2.4682   -3.5808   -0.1470 N.2       1 <0>        -0.4986
     13 C8         -2.5993   -2.2424   -0.3382 C.2       1 <0>         0.3138
     14 N5         -3.2420   -1.4662   -1.1668 N.2       1 <0>        -0.4264
     15 C9         -3.1912   -0.1305   -1.1284 C.2       1 <0>         0.3052
     16 N6         -2.5111    0.5641   -0.2831 N.2       1 <0>        -0.4574
     17 C10         3.5006    2.0165    1.2367 C.3       1 <0>         0.0653
     18 H2          3.9227    1.5538    0.3446 H         1 <0>         0.0439
     19 C11         3.5626    3.5162    1.1020 C.2       1 <0>        -0.0627
     20 C12         4.1506    4.1762    0.0974 C.2       1 <0>        -0.1341
     21 C13         5.0065    3.7844   -0.9516 C.2       1 <0>        -0.0515
     22 C14         5.9675    4.6988   -1.2838 C.2       1 <0>        -0.1169
     23 C15         6.0648    5.9576   -0.5493 C.2       1 <0>        -0.0877
     24 C16         5.0767    6.4222    0.2261 C.2       1 <0>        -0.0708
     25 C17         3.7968    5.6423    0.3130 C.3       1 <0>         0.0749
     26 H3          3.1047    5.9758   -0.4603 H         1 <0>         0.1388
     27 N7          3.1539    5.6702    1.6193 N.2       1 <0>        -0.4846
     28 C18         3.0035    4.4391    2.0144 C.2       1 <0>         0.1804
     29 Br1         7.6527    6.9734   -0.6990 Br        1 <0>        -0.0634
     30 C19         4.2902    1.5877    2.4465 C.2       1 <0>         0.5074
     31 O1          5.5069    1.5322    2.3921 O.co2     1 <0>        -0.6894
     32 O2          3.7122    1.2963    3.4798 O.co2     1 <0>        -0.6648
     33 H4         -0.5326    2.1770    1.5226 H         1 <0>         0.0507
     34 H5         -0.8196    2.1647   -0.2344 H         1 <0>         0.0897
     35 H6          1.5868    1.7791   -0.6385 H         1 <0>         0.0325
     36 H7          1.3492    3.2504    0.3354 H         1 <0>         0.0766
     37 H8          2.3262   -0.2771    0.4652 H         1 <0>         0.0272
     38 H9          2.6133   -0.2649    2.2222 H         1 <0>         0.1047
     39 H10         0.4444   -1.3506    1.6524 H         1 <0>         0.0992
     40 H11         0.2068    0.1208    2.6263 H         1 <0>         0.0552
     41 H12        -1.3838   -4.7436    1.2474 H         1 <0>         0.2340
     42 H13        -3.7661    0.4089   -1.8666 H         1 <0>         0.2114
     43 H14         4.9108    2.8336   -1.4548 H         1 <0>         0.1405
     44 H15         6.6554    4.4898   -2.0898 H         1 <0>         0.1325
     45 H16         5.1986    7.3416    0.7794 H         1 <0>         0.1389
     46 H17         2.5116    4.1565    2.9334 H         1 <0>         0.1777
@<TRIPOS>BOND
     1    1    6 1
     2    1    2 1
     3    1   33 1
     4    1   34 1
     5    2    3 1
     6    2   35 1
     7    2   36 1
     8    3    4 1
     9    3   17 1
    10    4    5 1
    11    4   37 1
    12    4   38 1
    13    5    6 1
    14    5   39 1
    15    5   40 1
    16    6    7 1
    17    7    8 1
    18    7   16 1
    19    7    9 1
    20    9   13 1
    21    9   10 2
    22   10   11 1
    23   11   12 2
    24   11   41 1
    25   12   13 1
    26   13   14 2
    27   14   15 1
    28   15   16 2
    29   15   42 1
    30   17   18 1
    31   17   19 1
    32   17   30 1
    33   19   28 1
    34   19   20 2
    35   20   25 1
    36   20   21 1
    37   21   22 2
    38   21   43 1
    39   22   23 1
    40   22   44 1
    41   23   24 2
    42   23   29 1
    43   24   25 1
    44   24   45 1
    45   25   26 1
    46   25   27 1
    47   27   28 2
    48   28   46 1
    49   30   31 2
    50   30   32 1
@<TRIPOS>MOLECULE
ZINC65647726
   41    41     0     0     0
SMALL
USER_CHARGES

@<TRIPOS>ATOM
      1 C1         -0.0187    1.5258    0.0104 C.3       1 <0>        -0.1596
      2 C2          0.0021   -0.0041    0.0020 C.3       1 <0>         0.1238
      3 C3          0.7309   -0.5033    1.2229 C.2       1 <0>         0.4927
      4 O1          0.0389   -0.8397    2.3312 O.3       1 <0>        -0.7032
      5 N1          2.0169   -0.6090    1.2084 N.2       1 <0>        -1.0609
      6 S1          2.8178   -1.1576    2.5500 S.o2      1 <0>         2.6782
      7 O2          2.6351   -0.1765    3.5615 O.2       1 <0>        -0.9785
      8 O3          2.4334   -2.5142    2.7261 O.2       1 <0>        -1.0072
      9 C4          4.5368   -1.1675    2.1628 C.2       1 <0>        -0.7942
     10 C5          5.1735   -2.3301    1.9058 C.2       1 <0>         0.2784
     11 N2          6.5087   -2.3198    1.6069 N.am      1 <0>        -0.5368
     12 C6          7.1931   -1.1622    1.5670 C.2       1 <0>         0.6987
     13 O4          8.3791   -1.1760    1.2996 O.2       1 <0>        -0.5438
     14 N3          6.5833    0.0111    1.8185 N.am      1 <0>        -0.5570
     15 C7          5.2674    0.0440    2.1112 C.2       1 <0>         0.5830
     16 O5          4.7137    1.1056    2.3339 O.2       1 <0>        -0.4725
     17 C8          7.3510    1.2578    1.7687 C.3       1 <0>         0.0790
     18 C9          7.1996   -3.5812    1.3281 C.3       1 <0>         0.0726
     19 O6         -1.3386   -0.4987    0.0122 O.3       1 <0>        -0.3611
     20 C10        -1.8963   -0.6929   -1.2891 C.3       1 <0>         0.0627
     21 C11        -3.3260   -1.2214   -1.1575 C.3       1 <0>        -0.0951
     22 C12        -3.9142   -1.4262   -2.5297 C.2       1 <0>        -0.1462
     23 C13        -4.4035   -2.5943   -2.8651 C.2       1 <0>        -0.1966
     24 H1          1.0039    1.9031    0.0027 H         1 <0>         0.0731
     25 H2         -0.5459    1.8868   -0.8726 H         1 <0>         0.0528
     26 H3         -0.5289    1.8773    0.9072 H         1 <0>         0.0646
     27 H4          0.5123   -0.3556   -0.8948 H         1 <0>         0.0744
     28 H5          4.6315   -3.2638    1.9365 H         1 <0>         0.1984
     29 H6          8.3876    1.0363    1.5149 H         1 <0>         0.0976
     30 H7          6.9247    1.9171    1.0126 H         1 <0>         0.0811
     31 H8          7.3119    1.7477    2.7416 H         1 <0>         0.0800
     32 H9          7.1468   -3.7962    0.2608 H         1 <0>         0.0811
     33 H10         8.2435   -3.4983    1.6307 H         1 <0>         0.0974
     34 H11         6.7227   -4.3876    1.8853 H         1 <0>         0.0951
     35 H12        -1.9077    0.2563   -1.8248 H         1 <0>         0.0443
     36 H13        -1.2917   -1.4136   -1.8397 H         1 <0>         0.0454
     37 H14        -3.3146   -2.1706   -0.6217 H         1 <0>         0.0764
     38 H15        -3.9306   -0.5007   -0.6069 H         1 <0>         0.0808
     39 H16        -3.9325   -0.6100   -3.2367 H         1 <0>         0.1080
     40 H17        -4.3852   -3.4105   -2.1581 H         1 <0>         0.0975
     41 H18        -4.8250   -2.7410   -3.8485 H         1 <0>         0.0954
@<TRIPOS>BOND
     1    1    2 1
     2    1   24 1
     3    1   25 1
     4    1   26 1
     5    2    3 1
     6    2   19 1
     7    2   27 1
     8    3    4 1
     9    3    5 2
    10    5    6 1
    11    6    7 2
    12    6    8 2
    13    6    9 1
    14    9   15 1
    15    9   10 2
    16   10   11 1
    17   10   28 1
    18   11   12 am
    19   11   18 1
    20   12   13 2
    21   12   14 am
    22   14   15 am
    23   14   17 1
    24   15   16 2
    25   17   29 1
    26   17   30 1
    27   17   31 1
    28   18   32 1
    29   18   33 1
    30   18   34 1
    31   19   20 1
    32   20   21 1
    33   20   35 1
    34   20   36 1
    35   21   22 1
    36   21   37 1
    37   21   38 1
    38   22   23 2
    39   22   39 1
    40   23   40 1
    41   23   41 1
@<TRIPOS>MOLECULE
ZINC13236376
   37    38     0     0     0
SMALL
USER_CHARGES
1-[2-(2-carboxy-4-iodo-phenoxy)acetyl]piperidine-4-carboxylic acid
@<TRIPOS>ATOM
      1 C1          1.4635    0.0675   -3.6604 C.ar      1 <0>        -0.0478
      2 C2          0.9463    0.4241   -2.4306 C.ar      1 <0>        -0.2293
      3 C3         -0.1950    1.2082   -2.3572 C.ar      1 <0>         0.1775
      4 C4         -0.8241    1.6319   -3.5366 C.ar      1 <0>        -0.1395
      5 C5         -0.2872    1.2683   -4.7744 C.ar      1 <0>        -0.0068
      6 C6          0.8482    0.4883   -4.8285 C.ar      1 <0>        -0.1536
      7 I1          1.6473   -0.0628   -6.6850 I         1 <0>        -0.0708
      8 C7         -2.0416    2.4602   -3.4711 C.2       1 <0>         0.4874
      9 O1         -2.5030    2.7778   -2.3928 O.co2     1 <0>        -0.5919
     10 O2         -0.7038    1.5592   -1.1497 O.3       1 <0>        -0.2391
     11 C8         -0.0127    1.0858    0.0080 C.3       1 <0>         0.0329
     12 C9         -0.7181    1.5718    1.2479 C.2       1 <0>         0.5138
     13 O3         -1.7145    2.2562    1.1498 O.2       1 <0>        -0.5008
     14 N1         -0.2416    1.2460    2.4658 N.am      1 <0>        -0.6104
     15 C10         0.9609    0.4126    2.6007 C.3       1 <0>         0.1072
     16 C11         0.6426   -0.7777    3.5038 C.3       1 <0>        -0.1120
     17 C12         0.0767   -0.2704    4.8321 C.3       1 <0>        -0.1273
     18 C13        -1.2187    0.5028    4.5746 C.3       1 <0>        -0.1098
     19 C14        -0.9183    1.7122    3.6837 C.3       1 <0>         0.1142
     20 C15        -0.2090   -1.4418    5.7362 C.2       1 <0>         0.4661
     21 O4         -1.3330   -1.6381    6.1336 O.co2     1 <0>        -0.6393
     22 H1          2.3527   -0.5433   -3.7120 H         1 <0>         0.1239
     23 H2          1.4313    0.0916   -1.5247 H         1 <0>         0.1315
     24 H3         -0.7636    1.5940   -5.6872 H         1 <0>         0.1425
     25 H4          0.0021   -0.0041    0.0020 H         1 <0>         0.0885
     26 H5          1.0099    1.4631    0.0003 H         1 <0>         0.0866
     27 H6          1.2682    0.0527    1.6188 H         1 <0>         0.0766
     28 H7          1.7646    1.0000    3.0448 H         1 <0>         0.0691
     29 H8          1.5526   -1.3481    3.6901 H         1 <0>         0.0819
     30 H9         -0.0935   -1.4157    3.0147 H         1 <0>         0.0604
     31 H10         0.8035    0.3873    5.3090 H         1 <0>         0.0689
     32 H11        -1.6335    0.8437    5.5232 H         1 <0>         0.0728
     33 H12        -1.9373   -0.1473    4.0754 H         1 <0>         0.0656
     34 H13        -0.2710    2.4078    4.2179 H         1 <0>         0.0621
     35 H14        -1.8506    2.2095    3.4161 H         1 <0>         0.0895
     36 O5         -2.6429    2.8651   -4.6069 O.co2     1 <0>        -0.7651
     37 O6          0.7852   -2.2671    6.0998 O.co2     1 <0>        -0.7755
@<TRIPOS>BOND
     1    1    6 ar
     2    1    2 ar
     3    1   22 1
     4    2    3 ar
     5    2   23 1
     6    3    4 ar
     7    3   10 1
     8    4    5 ar
     9    4    8 1
    10    5    6 ar
    11    5   24 1
    12    6    7 1
    13    8    9 2
    14    8   36 1
    15   10   11 1
    16   11   12 1
    17   11   25 1
    18   11   26 1
    19   12   13 2
    20   12   14 am
    21   14   19 1
    22   14   15 1
    23   15   16 1
    24   15   27 1
    25   15   28 1
    26   16   17 1
    27   16   29 1
    28   16   30 1
    29   17   18 1
    30   17   20 1
    31   17   31 1
    32   18   19 1
    33   18   32 1
    34   18   33 1
    35   19   34 1
    36   19   35 1
    37   20   21 2
    38   20   37 1
@<TRIPOS>MOLECULE
ZINC19890407
   49    52     0     0     0
SMALL
USER_CHARGES
2-[3-[(E)-[1-(2-ethoxyphenyl)-2,4,6-trioxo-hexahydropyrimidin-5-ylidene]methyl]indol-1-yl]acetic acid
@<TRIPOS>ATOM
      1 C1          5.9179    6.3578   -4.3827 C.3       1 <0>        -0.1544
      2 C2          6.1983    7.1399   -3.0980 C.3       1 <0>         0.0547
      3 O1          5.8245    6.3492   -1.9678 O.3       1 <0>        -0.2997
      4 C3          6.0105    6.9015   -0.7395 C.ar      1 <0>         0.1456
      5 C4          6.5367    8.1783   -0.6244 C.ar      1 <0>        -0.2099
      6 C5          6.7302    8.7363    0.6254 C.ar      1 <0>        -0.0890
      7 C6          6.3949    8.0256    1.7633 C.ar      1 <0>        -0.1547
      8 C7          5.8652    6.7538    1.6568 C.ar      1 <0>        -0.0677
      9 C8          5.6682    6.1873    0.4061 C.ar      1 <0>         0.1369
     10 N1          5.1310    4.8959    0.2956 N.am      1 <0>        -0.5425
     11 C9          3.7935    4.7438    0.2087 C.2       1 <0>         0.5750
     12 O2          3.0526    5.7089    0.2243 O.2       1 <0>        -0.5441
     13 C10         3.2539    3.3778    0.0939 C.2       1 <0>        -0.3237
     14 C11         1.8884    3.1437    0.0009 C.2       1 <0>         0.1252
     15 C12         1.4139    1.8508   -0.3002 C.2       1 <0>        -0.2351
     16 C13         1.8929    0.9949   -1.2771 C.2       1 <0>         0.2231
     17 N2          1.1846   -0.1486   -1.2605 N.pl3     1 <0>        -0.4293
     18 C14         0.2110   -0.1079   -0.2819 C.ar      1 <0>         0.0975
     19 C15         0.3047    1.1351    0.3630 C.ar      1 <0>        -0.0586
     20 C16        -0.5609    1.4493    1.4054 C.ar      1 <0>        -0.0907
     21 C17        -1.5182    0.5372    1.7963 C.ar      1 <0>        -0.1487
     22 C18        -1.6127   -0.6917    1.1613 C.ar      1 <0>        -0.1292
     23 C19        -0.7579   -1.0169    0.1299 C.ar      1 <0>        -0.1066
     24 C20         1.4148   -1.2829   -2.1585 C.3       1 <0>         0.0530
     25 C21         0.4886   -1.1820   -3.3429 C.2       1 <0>         0.4524
     26 O3         -0.2845   -0.2573   -3.4282 O.co2     1 <0>        -0.6161
     27 O4          0.5224   -2.1192   -4.3032 O.co2     1 <0>        -0.7653
     28 C22         4.2259    2.2706    0.0884 C.2       1 <0>         0.5389
     29 O5          3.8558    1.1147    0.0016 O.3       1 <0>        -0.5542
     30 N3          5.5376    2.5730    0.1772 N.2       1 <0>        -0.7111
     31 C23         5.9585    3.8415    0.2791 C.2       1 <0>         0.6679
     32 O6          7.1537    4.0465    0.3614 O.2       1 <0>        -0.5968
     33 H1          6.2056    6.9664   -5.2526 H         1 <0>         0.0739
     34 H2          4.8455    6.1197   -4.4403 H         1 <0>         0.0682
     35 H3          6.5010    5.4250   -4.3788 H         1 <0>         0.0691
     36 H4          7.2707    7.3780   -3.0404 H         1 <0>         0.0583
     37 H5          5.6153    8.0727   -3.1019 H         1 <0>         0.0575
     38 H6          6.7996    8.7359   -1.5112 H         1 <0>         0.1256
     39 H7          7.1445    9.7297    0.7134 H         1 <0>         0.1204
     40 H8          6.5478    8.4656    2.7377 H         1 <0>         0.1224
     41 H9          5.6043    6.2010    2.5472 H         1 <0>         0.1261
     42 H10         1.1770    3.9670    0.1622 H         1 <0>         0.1235
     43 H11         2.7101    1.2118   -1.9491 H         1 <0>         0.1665
     44 H12        -0.4881    2.4058    1.9016 H         1 <0>         0.1143
     45 H13        -2.1945    0.7794    2.6028 H         1 <0>         0.1120
     46 H14        -2.3635   -1.4008    1.4774 H         1 <0>         0.1140
     47 H15        -0.8402   -1.9769   -0.3579 H         1 <0>         0.1125
     48 H16         2.4581   -1.2690   -2.5067 H         1 <0>         0.1007
     49 H17         1.2205   -2.2222   -1.6200 H         1 <0>         0.0923
@<TRIPOS>BOND
     1    1    2 1
     2    1   33 1
     3    1   34 1
     4    1   35 1
     5    2    3 1
     6    2   36 1
     7    2   37 1
     8    3    4 1
     9    4    9 ar
    10    4    5 ar
    11    5    6 ar
    12    5   38 1
    13    6    7 ar
    14    6   39 1
    15    7    8 ar
    16    7   40 1
    17    8    9 ar
    18    8   41 1
    19    9   10 1
    20   10   31 am
    21   10   11 am
    22   11   12 2
    23   11   13 1
    24   13   14 2
    25   13   28 1
    26   14   15 1
    27   14   42 1
    28   15   19 1
    29   15   16 2
    30   16   17 1
    31   16   43 1
    32   17   18 1
    33   17   24 1
    34   18   23 ar
    35   18   19 ar
    36   19   20 ar
    37   20   21 ar
    38   20   44 1
    39   21   22 ar
    40   21   45 1
    41   22   23 ar
    42   22   46 1
    43   23   47 1
    44   24   25 1
    45   24   48 1
    46   24   49 1
    47   25   26 2
    48   25   27 1
    49   28   29 1
    50   28   30 2
    51   30   31 1
    52   31   32 2
@<TRIPOS>MOLECULE
ZINC17058149
   39    41     0     0     0
SMALL
USER_CHARGES

@<TRIPOS>ATOM
      1 C1          0.5623    0.7416   -0.1667 C.ar      1 <0>        -0.0649
      2 C2          1.7146    1.4232   -0.5062 C.ar      1 <0>        -0.1458
      3 C3          2.2365    1.3094   -1.7838 C.ar      1 <0>         0.0880
      4 C4          1.6041    0.5126   -2.7235 C.ar      1 <0>        -0.1451
      5 C5          0.4517   -0.1705   -2.3877 C.ar      1 <0>        -0.0761
      6 C6         -0.0727   -0.0580   -1.1072 C.ar      1 <0>         0.1540
      7 N1         -1.2426   -0.7508   -0.7645 N.am      1 <0>        -0.5341
      8 C7         -1.2115   -2.0971   -0.6681 C.2       1 <0>         0.5580
      9 O1         -0.1856   -2.7185   -0.8736 O.2       1 <0>        -0.4968
     10 C8         -2.4620   -2.7898   -0.3049 C.2       1 <0>        -0.2832
     11 C9         -2.5177   -4.1656   -0.1842 C.2       1 <0>         0.0742
     12 C10        -1.2844   -4.9513   -0.1975 C.ar      1 <0>        -0.1456
     13 C11        -0.1834   -4.5478    0.5740 C.ar      1 <0>         0.0290
     14 C12         0.9653   -5.2858    0.5579 C.ar      1 <0>        -0.2218
     15 C13         1.0465   -6.4358   -0.2215 C.ar      1 <0>         0.1868
     16 C14        -0.0419   -6.8419   -0.9891 C.ar      1 <0>        -0.1475
     17 C15        -1.1988   -6.1152   -0.9771 C.ar      1 <0>        -0.0206
     18 Br1         0.0790   -8.4062   -2.0447 Br        1 <0>        -0.0473
     19 O2          2.1908   -7.1640   -0.2338 O.3       1 <0>        -0.2632
     20 C16         3.2692   -6.6915    0.5761 C.3       1 <0>        -0.0108
     21 C17         4.4472   -7.6208    0.4361 C.2       1 <0>         0.5035
     22 O3          4.3704   -8.5973   -0.2899 O.co2     1 <0>        -0.6674
     23 O4          5.4771   -7.3962    1.0488 O.co2     1 <0>        -0.6905
     24 C18        -3.6535   -1.9439   -0.0753 C.2       1 <0>         0.5447
     25 N2         -3.5265   -0.6138   -0.2096 N.2       1 <0>        -0.6699
     26 C19        -2.3868   -0.0539   -0.5297 C.2       1 <0>         0.6379
     27 O5         -2.3468    1.2884   -0.6383 O.3       1 <0>        -0.6509
     28 O6         -4.7243   -2.4419    0.2280 O.2       1 <0>        -0.5457
     29 F1          3.3637    1.9769   -2.1140 F         1 <0>        -0.1455
     30 H1          0.1581    0.8271    0.8311 H         1 <0>         0.1324
     31 H2          2.2087    2.0456    0.2252 H         1 <0>         0.1358
     32 H3          2.0122    0.4257   -3.7196 H         1 <0>         0.1355
     33 H4         -0.0413   -0.7915   -3.1209 H         1 <0>         0.1298
     34 H5         -3.4721   -4.6603   -0.0801 H         1 <0>         0.1486
     35 H6         -0.2445   -3.6551    1.1788 H         1 <0>         0.1202
     36 H7          1.8130   -4.9761    1.1512 H         1 <0>         0.1349
     37 H8         -2.0441   -6.4333   -1.5693 H         1 <0>         0.1351
     38 H9          3.5554   -5.6908    0.2522 H         1 <0>         0.0630
     39 H10         2.9536   -6.6595    1.6189 H         1 <0>         0.0614
@<TRIPOS>BOND
     1    1    6 ar
     2    1    2 ar
     3    1   30 1
     4    2    3 ar
     5    2   31 1
     6    3    4 ar
     7    3   29 1
     8    4    5 ar
     9    4   32 1
    10    5    6 ar
    11    5   33 1
    12    6    7 1
    13    7   26 1
    14    7    8 am
    15    8    9 2
    16    8   10 1
    17   10   11 2
    18   10   24 1
    19   11   12 1
    20   11   34 1
    21   12   17 ar
    22   12   13 ar
    23   13   14 ar
    24   13   35 1
    25   14   15 ar
    26   14   36 1
    27   15   16 ar
    28   15   19 1
    29   16   17 ar
    30   16   18 1
    31   17   37 1
    32   19   20 1
    33   20   21 1
    34   20   38 1
    35   20   39 1
    36   21   22 2
    37   21   23 1
    38   24   25 1
    39   24   28 2
    40   25   26 2
    41   26   27 1
@<TRIPOS>MOLECULE
ZINC40155297
   48    52     0     0     0
SMALL
USER_CHARGES

@<TRIPOS>ATOM
      1 C1         -0.0164    1.3570    0.0095 C.ar      1 <0>        -0.1118
      2 C2          1.1559    2.1003    0.0023 C.ar      1 <0>        -0.0988
      3 C3          2.3751    1.4492   -0.0129 C.ar      1 <0>        -0.0633
      4 C4          2.4044    0.0758   -0.0205 C.ar      1 <0>        -0.1703
      5 C5          1.2262   -0.7047   -0.0135 C.ar      1 <0>         0.0811
      6 C6          0.0021   -0.0041    0.0020 C.ar      1 <0>        -0.0575
      7 N1          1.4635   -2.0326   -0.0233 N.2       1 <0>        -0.4963
      8 C7          2.6693   -2.5212   -0.0378 C.2       1 <0>         0.1050
      9 S1          3.6694   -1.1675   -0.0399 S.3       1 <0>         0.1176
     10 C8          3.0782   -3.9717   -0.0496 C.3       1 <0>         0.1447
     11 O1          3.1941   -4.4229   -1.4005 O.3       1 <0>        -0.3537
     12 C9          3.5794   -5.7934   -1.5244 C.3       1 <0>         0.0447
     13 C10         3.6705   -6.1597   -2.9834 C.2       1 <0>         0.5186
     14 O2          3.4291   -5.3289   -3.8334 O.2       1 <0>        -0.5261
     15 N2          4.0201   -7.4104   -3.3437 N.am      1 <0>        -0.6052
     16 C11         4.3095   -8.4294   -2.3255 C.3       1 <0>         0.1109
     17 C12         5.6896   -9.0311   -2.6085 C.3       1 <0>        -0.1407
     18 C13         5.7297   -9.5511   -4.0473 C.3       1 <0>         0.1606
     19 C14         5.5008   -8.3900   -5.0177 C.3       1 <0>        -0.1387
     20 C15         4.1131   -7.7825   -4.7620 C.3       1 <0>         0.1206
     21 N3          7.0372  -10.1571   -4.3110 N.pl3     1 <0>        -0.3047
     22 C16         7.2598  -11.4535   -4.6799 C.ar      1 <0>        -0.0279
     23 C17         8.6584  -11.5662   -4.8171 C.ar      1 <0>        -0.0591
     24 C18         9.1796  -12.8136   -5.1951 C.ar      1 <0>         0.3549
     25 O3         10.5179  -12.9833   -5.3427 O.3       1 <0>        -0.7516
     26 N4          8.3509  -13.8196   -5.4045 N.ar      1 <0>        -0.3738
     27 N5          7.0794  -13.7131   -5.2786 N.ar      1 <0>        -0.3348
     28 C19         6.4838  -12.5878   -4.9286 C.ar      1 <0>         0.3088
     29 O4          5.1321  -12.5343   -4.8107 O.3       1 <0>        -0.7797
     30 N6          9.1504  -10.3517   -4.5250 N.2       1 <0>        -0.2444
     31 N7          8.1768   -9.5576   -4.2406 N.2       1 <0>        -0.1164
     32 H1         -0.9661    1.8710    0.0259 H         1 <0>         0.1337
     33 H2          1.1157    3.1795    0.0081 H         1 <0>         0.1376
     34 H3          3.2953    2.0145   -0.0190 H         1 <0>         0.1347
     35 H4         -0.9285   -0.5522    0.0083 H         1 <0>         0.1334
     36 H5          4.0384   -4.0826    0.4542 H         1 <0>         0.0862
     37 H6          2.3252   -4.5656    0.4686 H         1 <0>         0.0907
     38 H7          4.5500   -5.9421   -1.0512 H         1 <0>         0.0884
     39 H8          2.8369   -6.4251   -1.0369 H         1 <0>         0.0871
     40 H9          4.3070   -7.9696   -1.3373 H         1 <0>         0.0847
     41 H10         3.5534   -9.2134   -2.3679 H         1 <0>         0.0838
     42 H11         6.4542   -8.2656   -2.4769 H         1 <0>         0.0776
     43 H12         5.8759   -9.8544   -1.9188 H         1 <0>         0.0841
     44 H13         4.9487  -10.2989   -4.1851 H         1 <0>         0.1310
     45 H14         6.2672   -7.6304   -4.8634 H         1 <0>         0.0766
     46 H15         5.5528   -8.7569   -6.0428 H         1 <0>         0.0825
     47 H16         3.3413   -8.5148   -4.9990 H         1 <0>         0.0787
     48 H17         3.9811   -6.8957   -5.3818 H         1 <0>         0.0966
@<TRIPOS>BOND
     1    1    6 ar
     2    1    2 ar
     3    1   32 1
     4    2    3 ar
     5    2   33 1
     6    3    4 ar
     7    3   34 1
     8    4    9 1
     9    4    5 ar
    10    5    6 ar
    11    5    7 1
    12    6   35 1
    13    7    8 2
    14    8    9 1
    15    8   10 1
    16   10   11 1
    17   10   36 1
    18   10   37 1
    19   11   12 1
    20   12   13 1
    21   12   38 1
    22   12   39 1
    23   13   14 2
    24   13   15 am
    25   15   20 1
    26   15   16 1
    27   16   17 1
    28   16   40 1
    29   16   41 1
    30   17   18 1
    31   17   42 1
    32   17   43 1
    33   18   19 1
    34   18   21 1
    35   18   44 1
    36   19   20 1
    37   19   45 1
    38   19   46 1
    39   20   47 1
    40   20   48 1
    41   21   31 1
    42   21   22 1
    43   22   28 ar
    44   22   23 ar
    45   23   24 ar
    46   23   30 1
    47   24   25 1
    48   24   26 ar
    49   26   27 ar
    50   27   28 ar
    51   28   29 1
    52   30   31 2
@<TRIPOS>MOLECULE
ZINC15821992
   45    48     0     0     0
SMALL
USER_CHARGES

@<TRIPOS>ATOM
      1 C1          0.1440   -3.5379   -0.0749 C.3       1 <0>        -0.1559
      2 C2          1.1177   -2.5599    0.5857 C.3       1 <0>         0.0110
      3 H1          1.5123   -3.0022    1.5004 H         1 <0>         0.0711
      4 C3          2.2533   -2.2657   -0.3604 C.2       1 <0>         0.5085
      5 O1          2.4021   -1.1392   -0.8025 O.co2     1 <0>        -0.6755
      6 O2          3.0231   -3.1541   -0.6837 O.co2     1 <0>        -0.6904
      7 O3          0.4331   -1.3457    0.9004 O.3       1 <0>        -0.2806
      8 C4         -0.2858   -1.3245    2.0501 C.ar      1 <0>         0.1670
      9 C5         -0.4165   -2.4853    2.8072 C.ar      1 <0>        -0.2329
     10 C6         -1.1391   -2.4708    3.9653 C.ar      1 <0>         0.0444
     11 C7         -1.7510   -1.2813    4.3925 C.ar      1 <0>        -0.1479
     12 C8         -1.6148   -0.1138    3.6243 C.ar      1 <0>        -0.0457
     13 C9         -0.8850   -0.1406    2.4709 C.ar      1 <0>        -0.1869
     14 C10        -2.5264   -1.2586    5.6308 C.2       1 <0>         0.0888
     15 C11        -2.0007   -1.8115    6.7877 C.2       1 <0>        -0.2729
     16 C12        -0.5876   -2.2125    6.8752 C.2       1 <0>         0.4931
     17 O4          0.2422   -2.0513    5.8232 O.3       1 <0>        -0.6021
     18 N1         -0.1497   -2.7339    8.0083 N.2       1 <0>        -0.6626
     19 C13        -0.9447   -2.9042    9.0619 C.2       1 <0>         0.6671
     20 O5         -0.4665   -3.3912   10.0710 O.2       1 <0>        -0.5715
     21 N2         -2.2431   -2.5690    9.0742 N.am      1 <0>        -0.5502
     22 C14        -2.8315   -2.0191    7.9903 C.2       1 <0>         0.5707
     23 O6         -4.0083   -1.7095    8.0028 O.2       1 <0>        -0.5260
     24 C15        -3.0009   -2.7877   10.2340 C.ar      1 <0>         0.1733
     25 C16        -3.8869   -3.8549   10.2933 C.ar      1 <0>        -0.0925
     26 C17        -4.6341   -4.0717   11.4350 C.ar      1 <0>        -0.0897
     27 C18        -4.5019   -3.2248   12.5237 C.ar      1 <0>         0.0225
     28 C19        -3.6139   -2.1533   12.4671 C.ar      1 <0>         0.0373
     29 C20        -2.8609   -1.9406   11.3244 C.ar      1 <0>        -0.0783
     30 O7         -3.6683   -1.4784   13.6524 O.3       1 <0>        -0.3088
     31 C21        -4.8924   -1.9025   14.2807 C.3       1 <0>         0.2139
     32 O8         -5.1127   -3.2208   13.7453 O.3       1 <0>        -0.3117
     33 H2         -0.2505   -3.0957   -0.9897 H         1 <0>         0.0560
     34 H3          0.6662   -4.4641   -0.3149 H         1 <0>         0.0704
     35 H4         -0.6773   -3.7508    0.6094 H         1 <0>         0.0513
     36 H5          0.0546   -3.3995    2.4775 H         1 <0>         0.1262
     37 H6         -1.2403   -3.3723    4.5514 H         1 <0>         0.1137
     38 H7         -2.0829    0.8043    3.9474 H         1 <0>         0.1200
     39 H8         -0.7759    0.7577    1.8813 H         1 <0>         0.1242
     40 H9         -3.5091   -0.8110    5.6444 H         1 <0>         0.1325
     41 H10        -3.9924   -4.5161    9.4458 H         1 <0>         0.1386
     42 H11        -5.3227   -4.9026   11.4788 H         1 <0>         0.1382
     43 H12        -2.1682   -1.1132   11.2802 H         1 <0>         0.1356
     44 H13        -4.7729   -1.9438   15.3633 H         1 <0>         0.1268
     45 H14        -5.7123   -1.2372   14.0100 H         1 <0>         0.0800
@<TRIPOS>BOND
     1    1    2 1
     2    1   33 1
     3    1   34 1
     4    1   35 1
     5    2    3 1
     6    2    4 1
     7    2    7 1
     8    4    5 2
     9    4    6 1
    10    7    8 1
    11    8   13 ar
    12    8    9 ar
    13    9   10 ar
    14    9   36 1
    15   10   11 ar
    16   10   37 1
    17   11   12 ar
    18   11   14 1
    19   12   13 ar
    20   12   38 1
    21   13   39 1
    22   14   15 2
    23   14   40 1
    24   15   22 1
    25   15   16 1
    26   16   17 1
    27   16   18 2
    28   18   19 1
    29   19   20 2
    30   19   21 am
    31   21   22 am
    32   21   24 1
    33   22   23 2
    34   24   29 ar
    35   24   25 ar
    36   25   26 ar
    37   25   41 1
    38   26   27 ar
    39   26   42 1
    40   27   32 1
    41   27   28 ar
    42   28   29 ar
    43   28   30 1
    44   29   43 1
    45   30   31 1
    46   31   32 1
    47   31   44 1
    48   31   45 1
@<TRIPOS>MOLECULE
ZINC65739575
   51    54     0     0     0
SMALL
USER_CHARGES

@<TRIPOS>ATOM
      1 C1         -0.0168    1.3896    0.0097 C.ar      1 <0>        -0.0921
      2 C2          1.1691    2.0940    0.0021 C.ar      1 <0>        -0.1098
      3 C3          2.3804    1.4164   -0.0135 C.ar      1 <0>         0.1220
      4 C4          2.4025    0.0286   -0.0216 C.ar      1 <0>        -0.1268
      5 C5          1.2201   -0.6816   -0.0137 C.ar      1 <0>        -0.0745
      6 C6          0.0021   -0.0041    0.0020 C.ar      1 <0>        -0.0421
      7 C7         -1.2714   -0.7647    0.0106 C.2       1 <0>        -0.2268
      8 C8         -2.1312   -0.6984   -1.0395 C.2       1 <0>         0.1179
      9 O1         -3.2792   -1.3783   -1.0768 O.3       1 <0>        -0.2186
     10 C9         -3.8134   -1.9293    0.0301 C.ar      1 <0>         0.1753
     11 C10        -5.1368   -2.3510    0.0428 C.ar      1 <0>        -0.1787
     12 C11        -5.6660   -2.9233    1.1868 C.ar      1 <0>         0.1994
     13 C12        -4.8838   -3.0822    2.3291 C.ar      1 <0>        -0.2070
     14 C13        -3.5815   -2.6701    2.3350 C.ar      1 <0>         0.0085
     15 C14        -3.0361   -2.0875    1.1913 C.ar      1 <0>        -0.2510
     16 C15        -1.6365   -1.6187    1.1568 C.2       1 <0>         0.4301
     17 O2         -0.8326   -1.9150    2.0240 O.2       1 <0>        -0.4464
     18 O3         -6.9599   -3.3335    1.1962 O.3       1 <0>        -0.2891
     19 C16        -7.4470   -3.9162    2.4066 C.3       1 <0>         0.2125
     20 H1         -6.7554   -4.6889    2.7421 H         1 <0>         0.0646
     21 C17        -8.8238   -4.5371    2.1564 C.3       1 <0>         0.1101
     22 H2         -8.7343   -5.3379    1.4224 H         1 <0>         0.0683
     23 C18        -9.3653   -5.1062    3.4714 C.3       1 <0>         0.1190
     24 H3         -8.7102   -5.9043    3.8204 H         1 <0>         0.0792
     25 C19        -9.4132   -3.9882    4.5174 C.3       1 <0>         0.0659
     26 H4         -9.7452   -4.3965    5.4720 H         1 <0>         0.0664
     27 C20        -8.0137   -3.3886    4.6765 C.3       1 <0>        -0.0021
     28 H5         -7.3294   -4.1543    5.0419 H         1 <0>         0.0584
     29 O4         -7.5568   -2.9060    3.4114 O.3       1 <0>        -0.3396
     30 C21        -8.0642   -2.2487    5.6610 C.2       1 <0>         0.5057
     31 O5         -8.3427   -2.4633    6.8284 O.co2     1 <0>        -0.6882
     32 O6         -7.8266   -1.1118    5.2900 O.co2     1 <0>        -0.6547
     33 O7        -10.3234   -2.9729    4.0899 O.3       1 <0>        -0.5253
     34 O8        -10.6806   -5.6243    3.2624 O.3       1 <0>        -0.5419
     35 O9         -9.7169   -3.5359    1.6642 O.3       1 <0>        -0.5094
     36 O10         3.5472    2.1133   -0.0214 O.3       1 <0>        -0.7149
     37 S1          4.0925    2.4233    1.3654 S.o2      1 <0>         2.7543
     38 O11         5.1082    3.4514    1.1998 O.2       1 <0>        -1.0646
     39 O12         2.9712    2.8911    2.1653 O.2       1 <0>        -1.0750
     40 O13         4.6521    1.1855    1.8856 O.3       1 <0>        -1.0770
     41 H6         -0.9590    1.9174    0.0260 H         1 <0>         0.1315
     42 H7          1.1551    3.1739    0.0081 H         1 <0>         0.1371
     43 H8          3.3466   -0.4958   -0.0346 H         1 <0>         0.1400
     44 H9          1.2380   -1.7614   -0.0204 H         1 <0>         0.1298
     45 H10        -1.8752   -0.0690   -1.8790 H         1 <0>         0.1993
     46 H11        -5.7514   -2.2323   -0.8373 H         1 <0>         0.1499
     47 H12        -5.3090   -3.5334    3.2135 H         1 <0>         0.1413
     48 H13        -2.9771   -2.7942    3.2214 H         1 <0>         0.1449
     49 H14       -10.4037   -2.2319    4.7060 H         1 <0>         0.3761
     50 H15       -11.0854   -6.0015    4.0555 H         1 <0>         0.3768
     51 H16        -9.4327   -3.1290    0.8343 H         1 <0>         0.3711
@<TRIPOS>BOND
     1    1    6 ar
     2    1    2 ar
     3    1   41 1
     4    2    3 ar
     5    2   42 1
     6    3    4 ar
     7    3   36 1
     8    4    5 ar
     9    4   43 1
    10    5    6 ar
    11    5   44 1
    12    6    7 1
    13    7   16 1
    14    7    8 2
    15    8    9 1
    16    8   45 1
    17    9   10 1
    18   10   15 ar
    19   10   11 ar
    20   11   12 ar
    21   11   46 1
    22   12   13 ar
    23   12   18 1
    24   13   14 ar
    25   13   47 1
    26   14   15 ar
    27   14   48 1
    28   15   16 1
    29   16   17 2
    30   18   19 1
    31   19   20 1
    32   19   29 1
    33   19   21 1
    34   21   22 1
    35   21   23 1
    36   21   35 1
    37   23   24 1
    38   23   25 1
    39   23   34 1
    40   25   26 1
    41   25   27 1
    42   25   33 1
    43   27   28 1
    44   27   29 1
    45   27   30 1
    46   30   31 2
    47   30   32 1
    48   33   49 1
    49   34   50 1
    50   35   51 1
    51   36   37 1
    52   37   38 2
    53   37   39 2
    54   37   40 1
@<TRIPOS>MOLECULE
ZINC16907608
   47    49     0     0     0
SMALL
USER_CHARGES
(2S)-2-[4-[(E)-[3-(4-hydroxy-2-methyl-phenyl)-2,4-dioxo-thiazolidin-5-ylidene]methyl]phenoxy]butanoic acid
@<TRIPOS>ATOM
      1 C1          2.8603    0.6882    1.6538 C.3       1 <0>        -0.1537
      2 C2          3.9858    0.4564    0.6438 C.3       1 <0>        -0.1266
      3 C3          3.7634    1.3463   -0.5808 C.3       1 <0>         0.0359
      4 H1          3.6715    2.3850   -0.2632 H         1 <0>         0.0813
      5 C4          4.9340    1.2099   -1.5201 C.2       1 <0>         0.4683
      6 O1          4.7608    0.8101   -2.6471 O.co2     1 <0>        -0.6141
      7 O2          2.5663    0.9451   -1.2501 O.3       1 <0>        -0.2771
      8 C5          1.4440    1.6631   -0.9891 C.ar      1 <0>         0.1842
      9 C6          0.2726    1.3957   -1.6883 C.ar      1 <0>        -0.1709
     10 C7         -0.8668    2.1244   -1.4317 C.ar      1 <0>        -0.0015
     11 C8         -0.8472    3.1293   -0.4565 C.ar      1 <0>        -0.1692
     12 C9          0.3357    3.3947    0.2445 C.ar      1 <0>        -0.0331
     13 C10         1.4706    2.6632   -0.0239 C.ar      1 <0>        -0.2327
     14 C11        -2.0610    3.9062   -0.1746 C.2       1 <0>         0.1132
     15 C12        -3.2652    3.2838   -0.1091 C.2       1 <0>        -0.2370
     16 C13        -3.5811    1.8418   -0.1222 C.2       1 <0>         0.5457
     17 O3         -2.7085    0.9969   -0.2008 O.2       1 <0>        -0.4380
     18 N1         -4.8597    1.5143   -0.0399 N.am      1 <0>        -0.5320
     19 C14        -5.8239    2.4538    0.0393 C.2       1 <0>         0.5546
     20 O4         -7.0277    2.2965    0.1140 O.2       1 <0>        -0.4157
     21 S1         -4.9054    3.9848    0.0089 S.3       1 <0>        -0.0603
     22 C15        -5.2218    0.1586   -0.0424 C.ar      1 <0>         0.0916
     23 C16        -5.4836   -0.4880   -1.2428 C.ar      1 <0>        -0.0712
     24 C17        -5.8352   -1.8232   -1.2451 C.ar      1 <0>        -0.1408
     25 C18        -5.9373   -2.5160   -0.0472 C.ar      1 <0>         0.1289
     26 C19        -5.6810   -1.8690    1.1526 C.ar      1 <0>        -0.1385
     27 C20        -5.3240   -0.5348    1.1556 C.ar      1 <0>        -0.0402
     28 C21        -5.0451    0.1678    2.4592 C.3       1 <0>        -0.1192
     29 O5         -6.2890   -3.8292   -0.0496 O.3       1 <0>        -0.4954
     30 H2          2.8570    1.7342    1.9606 H         1 <0>         0.0529
     31 H3          1.9032    0.4414    1.1943 H         1 <0>         0.0537
     32 H4          3.0187    0.0542    2.5262 H         1 <0>         0.0528
     33 H5          3.9891   -0.5895    0.3371 H         1 <0>         0.0676
     34 H6          4.9429    0.7033    1.1033 H         1 <0>         0.0880
     35 H7          0.2576    0.6178   -2.4373 H         1 <0>         0.1327
     36 H8         -1.7750    1.9191   -1.9789 H         1 <0>         0.1211
     37 H9          0.3574    4.1715    0.9945 H         1 <0>         0.1274
     38 H10         2.3834    2.8670    0.5160 H         1 <0>         0.1404
     39 H11        -1.9954    4.9730   -0.0194 H         1 <0>         0.1537
     40 H12        -5.4081    0.0522   -2.1749 H         1 <0>         0.1325
     41 H13        -6.0349   -2.3273   -2.1791 H         1 <0>         0.1394
     42 H14        -5.7602   -2.4088    2.0847 H         1 <0>         0.1388
     43 H15        -5.9683    0.6024    2.8425 H         1 <0>         0.0783
     44 H16        -4.6535   -0.5485    3.1815 H         1 <0>         0.0792
     45 H17        -4.3118    0.9577    2.2966 H         1 <0>         0.0632
     46 H18        -7.2422   -3.9812    0.0087 H         1 <0>         0.3940
     47 O6          6.1689    1.5325   -1.1048 O.co2     1 <0>        -0.7522
@<TRIPOS>BOND
     1    1    2 1
     2    1   30 1
     3    1   31 1
     4    1   32 1
     5    2    3 1
     6    2   33 1
     7    2   34 1
     8    3    4 1
     9    3    5 1
    10    3    7 1
    11    5    6 2
    12    5   47 1
    13    7    8 1
    14    8   13 ar
    15    8    9 ar
    16    9   10 ar
    17    9   35 1
    18   10   11 ar
    19   10   36 1
    20   11   12 ar
    21   11   14 1
    22   12   13 ar
    23   12   37 1
    24   13   38 1
    25   14   15 2
    26   14   39 1
    27   15   21 1
    28   15   16 1
    29   16   17 2
    30   16   18 am
    31   18   19 am
    32   18   22 1
    33   19   20 2
    34   19   21 1
    35   22   27 ar
    36   22   23 ar
    37   23   24 ar
    38   23   40 1
    39   24   25 ar
    40   24   41 1
    41   25   26 ar
    42   25   29 1
    43   26   27 ar
    44   26   42 1
    45   27   28 1
    46   28   43 1
    47   28   44 1
    48   28   45 1
    49   29   46 1
@<TRIPOS>MOLECULE
ZINC12970064
   52    55     0     0     0
SMALL
USER_CHARGES

@<TRIPOS>ATOM
      1 C1          6.1329    1.9316    1.2887 C.3       1 <0>         0.0275
      2 O1          6.3027    0.5165    1.3925 O.3       1 <0>        -0.3186
      3 C2          5.3314   -0.1745    2.0409 C.ar      1 <0>         0.1366
      4 C3          4.2321    0.4985    2.5624 C.ar      1 <0>        -0.2242
      5 C4          3.2446   -0.1987    3.2209 C.ar      1 <0>        -0.0350
      6 C5          3.3479   -1.5857    3.3646 C.ar      1 <0>        -0.1722
      7 C6          4.4548   -2.2587    2.8383 C.ar      1 <0>        -0.0246
      8 C7          5.4355   -1.5545    2.1770 C.ar      1 <0>        -0.1678
      9 C8          2.2916   -2.3374    4.0704 C.2       1 <0>         0.5069
     10 O2          1.3909   -1.7407    4.6305 O.2       1 <0>        -0.4782
     11 C9          2.3276   -3.8031    4.0967 C.2       1 <0>        -0.5020
     12 C10         2.4927   -4.5869    5.1874 C.2       1 <0>         0.2626
     13 C11         2.4681   -6.0057    4.7741 C.2       1 <0>         0.5108
     14 O3          2.5908   -6.9530    5.5250 O.2       1 <0>        -0.5392
     15 N1          2.2898   -6.0933    3.4434 N.am      1 <0>        -0.6044
     16 C12         2.1810   -4.7295    2.9122 C.3       1 <0>         0.2629
     17 H1          2.9780   -4.5457    2.1918 H         1 <0>         0.0657
     18 C13         0.8367   -4.5293    2.2611 C.ar      1 <0>        -0.0394
     19 C14        -0.3184   -4.6370    3.0138 C.ar      1 <0>        -0.0492
     20 C15        -1.5531   -4.4539    2.4195 C.ar      1 <0>        -0.1037
     21 C16        -1.6358   -4.1631    1.0713 C.ar      1 <0>        -0.1503
     22 C17        -0.4787   -4.0546    0.3142 C.ar      1 <0>         0.0872
     23 C18         0.7596   -4.2328    0.9143 C.ar      1 <0>        -0.1354
     24 O4         -0.5575   -3.7686   -1.0121 O.3       1 <0>        -0.5055
     25 C19         2.2115   -7.3310    2.6637 C.3       1 <0>         0.1302
     26 C20         0.7872   -7.8859    2.7293 C.3       1 <0>         0.0591
     27 H2          0.4817   -7.9980    3.7695 H         1 <0>         0.0812
     28 C21         0.7243   -9.2530    2.0148 C.3       1 <0>        -0.1457
     29 C22        -0.6464   -9.1824    1.2881 C.3       1 <0>        -0.1543
     30 C23        -0.7145   -7.6754    0.9345 C.3       1 <0>         0.0515
     31 O5         -0.1112   -6.9997    2.0517 O.3       1 <0>        -0.3450
     32 O6          2.6546   -4.1424    6.4550 O.3       1 <0>        -0.6559
     33 H3          6.0816    2.3656    2.2873 H         1 <0>         0.0552
     34 H4          6.9775    2.3602    0.7492 H         1 <0>         0.0967
     35 H5          5.2102    2.1483    0.7505 H         1 <0>         0.0547
     36 H6          4.1531    1.5698    2.4510 H         1 <0>         0.1264
     37 H7          2.3914    0.3249    3.6263 H         1 <0>         0.1314
     38 H8          4.5384   -3.3299    2.9471 H         1 <0>         0.1409
     39 H9          6.2887   -2.0740    1.7666 H         1 <0>         0.1304
     40 H10        -0.2558   -4.8648    4.0676 H         1 <0>         0.1134
     41 H11        -2.4537   -4.5385    3.0095 H         1 <0>         0.1133
     42 H12        -2.6007   -4.0209    0.6074 H         1 <0>         0.1127
     43 H13         1.6622   -4.1441    0.3279 H         1 <0>         0.1151
     44 H14        -0.5410   -2.8227   -1.2122 H         1 <0>         0.3801
     45 H15         2.4734   -7.1240    1.6260 H         1 <0>         0.0788
     46 H16         2.9062   -8.0637    3.0744 H         1 <0>         0.0829
     47 H17         1.5389   -9.3537    1.2975 H         1 <0>         0.0759
     48 H18         0.7389  -10.0692    2.7370 H         1 <0>         0.0793
     49 H19        -0.6461   -9.7974    0.3882 H         1 <0>         0.0765
     50 H20        -1.4600   -9.4665    1.9555 H         1 <0>         0.0741
     51 H21        -0.1529   -7.4750    0.0221 H         1 <0>         0.0539
     52 H22        -1.7516   -7.3606    0.8182 H         1 <0>         0.0770
@<TRIPOS>BOND
     1    1    2 1
     2    1   33 1
     3    1   34 1
     4    1   35 1
     5    2    3 1
     6    3    8 ar
     7    3    4 ar
     8    4    5 ar
     9    4   36 1
    10    5    6 ar
    11    5   37 1
    12    6    7 ar
    13    6    9 1
    14    7    8 ar
    15    7   38 1
    16    8   39 1
    17    9   10 2
    18    9   11 1
    19   11   16 1
    20   11   12 2
    21   12   13 1
    22   12   32 1
    23   13   14 2
    24   13   15 am
    25   15   16 1
    26   15   25 1
    27   16   17 1
    28   16   18 1
    29   18   23 ar
    30   18   19 ar
    31   19   20 ar
    32   19   40 1
    33   20   21 ar
    34   20   41 1
    35   21   22 ar
    36   21   42 1
    37   22   23 ar
    38   22   24 1
    39   23   43 1
    40   24   44 1
    41   25   26 1
    42   25   45 1
    43   25   46 1
    44   26   27 1
    45   26   31 1
    46   26   28 1
    47   28   29 1
    48   28   47 1
    49   28   48 1
    50   29   30 1
    51   29   49 1
    52   29   50 1
    53   30   31 1
    54   30   51 1
    55   30   52 1
@<TRIPOS>MOLECULE
ZINC45967609
   49    51     0     0     0
SMALL
USER_CHARGES

@<TRIPOS>ATOM
      1 C1         -0.1724    1.3680   -0.0888 C.ar      1 <0>        -0.1249
      2 C2          0.8378    2.1038    0.5062 C.ar      1 <0>        -0.0885
      3 C3          1.9022    1.4640    1.1142 C.ar      1 <0>        -0.1276
      4 C4          1.9640    0.0840    1.1310 C.ar      1 <0>         0.0127
      5 C5          0.9473   -0.6642    0.5321 C.ar      1 <0>        -0.1204
      6 C6         -0.1242   -0.0100   -0.0794 C.ar      1 <0>        -0.0674
      7 C7          1.0060   -2.1402    0.5452 C.2       1 <0>         0.5402
      8 O1          1.9404   -2.7067    1.0779 O.2       1 <0>        -0.5198
      9 N1          0.0236   -2.8588   -0.0335 N.am      1 <0>        -0.6299
     10 C8          0.1356   -4.2439   -0.1255 C.ar      1 <0>         0.1263
     11 C9          1.3886   -4.8426   -0.1290 C.ar      1 <0>        -0.1025
     12 C10         1.5011   -6.2143   -0.2200 C.ar      1 <0>        -0.1790
     13 C11         0.3622   -7.0096   -0.3091 C.ar      1 <0>         0.1791
     14 C12        -0.8938   -6.4294   -0.3071 C.ar      1 <0>        -0.1370
     15 C13        -1.0180   -5.0398   -0.2093 C.ar      1 <0>        -0.1221
     16 C14        -2.3501   -4.4149   -0.2002 C.2       1 <0>         0.5276
     17 O2         -3.3488   -5.1008   -0.3705 O.co2     1 <0>        -0.6775
     18 O3         -2.4591   -3.2093   -0.0222 O.co2     1 <0>        -0.6890
     19 N2          0.4879   -8.4002   -0.4015 N.pl3     1 <0>        -0.6371
     20 C15        -0.6914   -9.2521   -0.6174 C.3       1 <0>         0.1275
     21 C16        -0.4076  -10.1859   -1.7988 C.3       1 <0>         0.0423
     22 N3          0.8464  -10.9112   -1.5553 N.3       1 <0>        -0.5342
     23 C17         1.9885   -9.9904   -1.4798 C.3       1 <0>         0.0333
     24 C18         1.8037   -9.0481   -0.2914 C.3       1 <0>         0.1301
     25 C19         1.0668  -11.9404   -2.5800 C.3       1 <0>         0.0586
     26 C20         2.2369  -12.8334   -2.1626 C.3       1 <0>        -0.0253
     27 C21         2.4578  -13.8647   -3.1894 C.1       1 <0>         0.2088
     28 N4          2.6282  -14.6607   -3.9819 N.1       1 <0>        -0.4389
     29 Cl1         3.3014   -0.7182    1.8936 Cl        1 <0>        -0.0364
     30 H1         -1.0030    1.8746   -0.5579 H         1 <0>         0.1348
     31 H2          0.7946    3.1829    0.4953 H         1 <0>         0.1333
     32 H3          2.6870    2.0443    1.5766 H         1 <0>         0.1361
     33 H4         -0.9136   -0.5823   -0.5439 H         1 <0>         0.1446
     34 H5         -0.7616   -2.4113   -0.3859 H         1 <0>         0.4238
     35 H6          2.2773   -4.2327   -0.0605 H         1 <0>         0.1400
     36 H7          2.4785   -6.6739   -0.2225 H         1 <0>         0.1162
     37 H8         -1.7762   -7.0482   -0.3766 H         1 <0>         0.1297
     38 H9         -0.8852   -9.8428    0.2779 H         1 <0>         0.0649
     39 H10        -1.5569   -8.6291   -0.8428 H         1 <0>         0.0920
     40 H11        -1.2256  -10.8987   -1.9036 H         1 <0>         0.0849
     41 H12        -0.3168   -9.5990   -2.7127 H         1 <0>         0.0413
     42 H13         2.9083  -10.5614   -1.3533 H         1 <0>         0.0850
     43 H14         2.0460   -9.4062   -2.3982 H         1 <0>         0.0406
     44 H15         2.5871   -8.2902   -0.3015 H         1 <0>         0.0852
     45 H16         1.8544   -9.6188    0.6358 H         1 <0>         0.0634
     46 H17         0.1670  -12.5464   -2.6858 H         1 <0>         0.0847
     47 H18         1.2966  -11.4619   -3.5321 H         1 <0>         0.0427
     48 H19         3.1368  -12.2274   -2.0569 H         1 <0>         0.1088
     49 H20         2.0072  -13.3119   -1.2106 H         1 <0>         0.1193
@<TRIPOS>BOND
     1    1    6 ar
     2    1    2 ar
     3    1   30 1
     4    2    3 ar
     5    2   31 1
     6    3    4 ar
     7    3   32 1
     8    4    5 ar
     9    4   29 1
    10    5    6 ar
    11    5    7 1
    12    6   33 1
    13    7    8 2
    14    7    9 am
    15    9   10 1
    16    9   34 1
    17   10   15 ar
    18   10   11 ar
    19   11   12 ar
    20   11   35 1
    21   12   13 ar
    22   12   36 1
    23   13   14 ar
    24   13   19 1
    25   14   15 ar
    26   14   37 1
    27   15   16 1
    28   16   17 2
    29   16   18 1
    30   19   24 1
    31   19   20 1
    32   20   21 1
    33   20   38 1
    34   20   39 1
    35   21   22 1
    36   21   40 1
    37   21   41 1
    38   22   23 1
    39   22   25 1
    40   23   24 1
    41   23   42 1
    42   23   43 1
    43   24   44 1
    44   24   45 1
    45   25   26 1
    46   25   46 1
    47   25   47 1
    48   26   27 1
    49   26   48 1
    50   26   49 1
    51   27   28 3
@<TRIPOS>MOLECULE
ZINC15218355
   56    60     0     0     0
SMALL
USER_CHARGES

@<TRIPOS>ATOM
      1 C1          0.0000    0.6217    0.4460 C.3       1 <0>         0.0278
      2 O1          0.1526   -0.7787    0.2064 O.3       1 <0>        -0.3694
      3 C2          0.7774   -1.0904   -1.0404 C.3       1 <0>         0.2418
      4 H1          1.7440   -0.5915   -1.1115 H         1 <0>         0.0885
      5 C3          0.9506   -2.5858   -1.1780 C.2       1 <0>        -0.1547
      6 C4          0.6085   -2.9315   -2.3971 C.2       1 <0>        -0.1832
      7 C5          0.1870   -1.6872   -3.1448 C.3       1 <0>         0.2727
      8 O2         -0.0699   -0.6915   -2.1347 O.3       1 <0>        -0.3678
      9 C6         -1.0832   -1.9612   -3.9526 C.3       1 <0>         0.1522
     10 N1         -1.4771   -0.7462   -4.6701 N.am      1 <0>        -0.7189
     11 C7         -2.5751   -0.7513   -5.4517 C.2       1 <0>         0.5289
     12 O3         -3.2371   -1.7616   -5.5610 O.2       1 <0>        -0.5494
     13 C8         -2.9804    0.4985   -6.1898 C.3       1 <0>        -0.0839
     14 H2         -2.1745    0.7927   -6.8622 H         1 <0>         0.1185
     15 C9         -3.2230    1.6182   -5.1809 C.3       1 <0>        -0.1393
     16 H3         -3.0439    1.2373   -4.1754 H         1 <0>         0.0703
     17 C10        -4.6697    2.1508   -5.2694 C.3       1 <0>         0.0154
     18 C11        -4.8601    2.5602   -6.7216 C.ar      1 <0>        -0.0468
     19 C12        -5.2157    3.8110   -7.1388 C.ar      1 <0>        -0.0895
     20 C13        -5.3544    4.0478   -8.5005 C.ar      1 <0>        -0.1249
     21 C14        -5.1359    3.0333   -9.4138 C.ar      1 <0>        -0.1322
     22 C15        -4.7745    1.7635   -8.9821 C.ar      1 <0>        -0.1113
     23 C16        -4.6394    1.5380   -7.6420 C.ar      1 <0>        -0.0829
     24 C17        -4.2496    0.2064   -7.0195 C.3       1 <0>         0.0128
     25 C18        -5.3385   -0.0890   -5.9997 C.ar      1 <0>        -0.0565
     26 C19        -5.5598    0.9319   -5.0817 C.ar      1 <0>        -0.0797
     27 C20        -6.5100    0.8026   -4.1094 C.ar      1 <0>        -0.1150
     28 C21        -7.2541   -0.3689   -4.0526 C.ar      1 <0>        -0.1289
     29 C22        -7.0338   -1.3835   -4.9655 C.ar      1 <0>        -0.1322
     30 C23        -6.0668   -1.2431   -5.9490 C.ar      1 <0>        -0.0832
     31 C24        -2.2650    2.7480   -5.4580 C.2       1 <0>         0.5036
     32 O4         -2.5848    3.8957   -5.1993 O.co2     1 <0>        -0.6847
     33 O5         -1.1701    2.5143   -5.9409 O.co2     1 <0>        -0.6912
     34 O6          1.2380   -1.2512   -4.0093 O.3       1 <0>        -0.3597
     35 C25         2.4188   -0.8313   -3.3226 C.3       1 <0>         0.0172
     36 H4          0.9802    1.0987    0.4494 H         1 <0>         0.0437
     37 H5         -0.6146    1.0600   -0.3402 H         1 <0>         0.0579
     38 H6         -0.4818    0.7747    1.4117 H         1 <0>         0.0902
     39 H7          1.2971   -3.2556   -0.4049 H         1 <0>         0.1597
     40 H8          0.6257   -3.9342   -2.7979 H         1 <0>         0.1626
     41 H9         -0.8930   -2.7606   -4.6688 H         1 <0>         0.0863
     42 H10        -1.8852   -2.2610   -3.2780 H         1 <0>         0.0861
     43 H11        -0.9477    0.0618   -4.5828 H         1 <0>         0.4182
     44 H12        -4.8774    2.9472   -4.5547 H         1 <0>         0.1050
     45 H13        -5.3864    4.6016   -6.4231 H         1 <0>         0.1229
     46 H14        -5.6352    5.0311   -8.8480 H         1 <0>         0.1151
     47 H15        -5.2473    3.2292  -10.4700 H         1 <0>         0.1145
     48 H16        -4.6039    0.9688   -9.6934 H         1 <0>         0.1187
     49 H17        -4.1072   -0.5846   -7.7558 H         1 <0>         0.1012
     50 H18        -6.6795    1.5966   -3.3972 H         1 <0>         0.1193
     51 H19        -8.0095   -0.4882   -3.2900 H         1 <0>         0.1132
     52 H20        -7.6183   -2.2901   -4.9112 H         1 <0>         0.1131
     53 H21        -5.8943   -2.0340   -6.6638 H         1 <0>         0.1185
     54 H22         3.2061   -0.6238   -4.0473 H         1 <0>         0.0950
     55 H23         2.2047    0.0712   -2.7502 H         1 <0>         0.0510
     56 H24         2.7463   -1.6212   -2.6466 H         1 <0>         0.0434
@<TRIPOS>BOND
     1    1    2 1
     2    1   36 1
     3    1   37 1
     4    1   38 1
     5    2    3 1
     6    3    4 1
     7    3    8 1
     8    3    5 1
     9    5    6 2
    10    5   39 1
    11    6    7 1
    12    6   40 1
    13    7    8 1
    14    7    9 1
    15    7   34 1
    16    9   10 1
    17    9   41 1
    18    9   42 1
    19   10   11 am
    20   10   43 1
    21   11   12 2
    22   11   13 1
    23   13   14 1
    24   13   24 1
    25   13   15 1
    26   15   16 1
    27   15   17 1
    28   15   31 1
    29   17   26 1
    30   17   18 1
    31   17   44 1
    32   18   23 ar
    33   18   19 ar
    34   19   20 ar
    35   19   45 1
    36   20   21 ar
    37   20   46 1
    38   21   22 ar
    39   21   47 1
    40   22   23 ar
    41   22   48 1
    42   23   24 1
    43   24   25 1
    44   24   49 1
    45   25   30 ar
    46   25   26 ar
    47   26   27 ar
    48   27   28 ar
    49   27   50 1
    50   28   29 ar
    51   28   51 1
    52   29   30 ar
    53   29   52 1
    54   30   53 1
    55   31   32 2
    56   31   33 1
    57   34   35 1
    58   35   54 1
    59   35   55 1
    60   35   56 1
@<TRIPOS>MOLECULE
ZINC09111334
   48    51     0     0     0
SMALL
USER_CHARGES

@<TRIPOS>ATOM
      1 C1          2.9585    2.9696   -1.9808 C.3       1 <0>         0.0278
      2 O1          2.8029    1.6000   -1.6039 O.3       1 <0>        -0.3182
      3 C2          2.9853    0.6675   -2.5767 C.ar      1 <0>         0.0893
      4 C3          3.3127    1.0640   -3.8648 C.ar      1 <0>        -0.1707
      5 C4          3.4979    0.1167   -4.8530 C.ar      1 <0>        -0.1126
      6 C5          3.3569   -1.2309   -4.5569 C.ar      1 <0>         0.0977
      7 C6          3.0304   -1.6275   -3.2686 C.ar      1 <0>        -0.1609
      8 C7          2.8494   -0.6804   -2.2794 C.ar      1 <0>        -0.1076
      9 O2          3.5384   -2.1634   -5.5299 O.3       1 <0>        -0.3150
     10 C8          3.3774   -3.5327   -5.1543 C.3       1 <0>         0.0416
     11 C9          3.6188   -4.4273   -6.3718 C.3       1 <0>         0.1135
     12 N1          3.4538   -5.8311   -5.9867 N.pl3     1 <0>        -0.4609
     13 C10         4.4587   -6.6446   -5.6170 C.2       1 <0>         0.2187
     14 C11         3.9531   -7.8999   -5.3198 C.2       1 <0>        -0.2236
     15 C12         2.4943   -7.8154   -5.5383 C.ar      1 <0>        -0.0507
     16 C13         2.2442   -6.4968   -5.9485 C.ar      1 <0>         0.0774
     17 C14         0.9387   -6.1073   -6.2287 C.ar      1 <0>        -0.1167
     18 C15        -0.0927   -7.0127   -6.0987 C.ar      1 <0>        -0.1159
     19 C16         0.1569   -8.3138   -5.6899 C.ar      1 <0>        -0.1341
     20 C17         1.4455   -8.7205   -5.4150 C.ar      1 <0>        -0.0859
     21 C18         4.6820   -9.0279   -4.8960 C.2       1 <0>         0.1459
     22 C19         5.6375   -8.9019   -3.8920 C.2       1 <0>        -0.3051
     23 C20         5.7644   -7.6690   -3.1040 C.2       1 <0>         0.5040
     24 O3          4.9511   -6.6158   -3.3339 O.3       1 <0>        -0.5967
     25 N2          6.6929   -7.6138   -2.1639 N.2       1 <0>        -0.6008
     26 C21         7.5074   -8.6352   -1.9152 C.2       1 <0>         0.5540
     27 S1          8.6738   -8.4570   -0.6748 S.2       1 <0>        -0.6873
     28 N3          7.4643   -9.7974   -2.5830 N.am      1 <0>        -0.6532
     29 C22         6.5634  -10.0021   -3.5678 C.2       1 <0>         0.5608
     30 O4          6.5205  -11.0585   -4.1711 O.2       1 <0>        -0.5250
     31 H1          3.9694    3.1308   -2.3553 H         1 <0>         0.0544
     32 H2          2.2384    3.2158   -2.7612 H         1 <0>         0.0534
     33 H3          2.7864    3.6070   -1.1135 H         1 <0>         0.0984
     34 H4          3.4225    2.1134   -4.0954 H         1 <0>         0.1337
     35 H5          3.7522    0.4255   -5.8562 H         1 <0>         0.1332
     36 H6          2.9203   -2.6768   -3.0381 H         1 <0>         0.1385
     37 H7          2.5988   -0.9894   -1.2754 H         1 <0>         0.1354
     38 H8          4.0949   -3.7818   -4.3725 H         1 <0>         0.0836
     39 H9          2.3652   -3.6908   -4.7822 H         1 <0>         0.0685
     40 H10         2.9013   -4.1782   -7.1536 H         1 <0>         0.0986
     41 H11         4.6311   -4.2692   -6.7439 H         1 <0>         0.1048
     42 H12         5.4998   -6.3628   -5.5604 H         1 <0>         0.1754
     43 H13         0.7332   -5.0961   -6.5475 H         1 <0>         0.1165
     44 H14        -1.1047   -6.7054   -6.3170 H         1 <0>         0.1224
     45 H15        -0.6603   -9.0131   -5.5921 H         1 <0>         0.1214
     46 H16         1.6382   -9.7340   -5.0955 H         1 <0>         0.1220
     47 H17         4.4995   -9.9907   -5.3500 H         1 <0>         0.1336
     48 H18         8.0879  -10.5037   -2.3523 H         1 <0>         0.4169
@<TRIPOS>BOND
     1    1    2 1
     2    1   31 1
     3    1   32 1
     4    1   33 1
     5    2    3 1
     6    3    8 ar
     7    3    4 ar
     8    4    5 ar
     9    4   34 1
    10    5    6 ar
    11    5   35 1
    12    6    7 ar
    13    6    9 1
    14    7    8 ar
    15    7   36 1
    16    8   37 1
    17    9   10 1
    18   10   11 1
    19   10   38 1
    20   10   39 1
    21   11   12 1
    22   11   40 1
    23   11   41 1
    24   12   16 1
    25   12   13 1
    26   13   14 2
    27   13   42 1
    28   14   15 1
    29   14   21 1
    30   15   20 ar
    31   15   16 ar
    32   16   17 ar
    33   17   18 ar
    34   17   43 1
    35   18   19 ar
    36   18   44 1
    37   19   20 ar
    38   19   45 1
    39   20   46 1
    40   21   22 2
    41   21   47 1
    42   22   29 1
    43   22   23 1
    44   23   24 1
    45   23   25 2
    46   25   26 1
    47   26   27 2
    48   26   28 1
    49   28   29 am
    50   28   48 1
    51   29   30 2
@<TRIPOS>MOLECULE
ZINC13242549
   40    43     0     0     0
SMALL
USER_CHARGES
3-methyl-2-[[2-([1,2,4]triazolo[5,4-b][1,3]benzothiazol-1-ylsulfanyl)acetyl]amino]benzoic acid
@<TRIPOS>ATOM
      1 C1          1.5121    1.6551   -1.2158 C.3       1 <0>        -0.1013
      2 C2          2.6088    0.8337   -0.5885 C.ar      1 <0>        -0.0920
      3 C3          2.5102   -0.5431   -0.5622 C.ar      1 <0>        -0.1142
      4 C4          3.5126   -1.3074    0.0125 C.ar      1 <0>        -0.1374
      5 C5          4.6204   -0.7011    0.5643 C.ar      1 <0>        -0.0736
      6 C6          4.7347    0.6912    0.5455 C.ar      1 <0>        -0.1213
      7 C7          3.7144    1.4626   -0.0325 C.ar      1 <0>         0.1597
      8 N1          3.8134    2.8515   -0.0531 N.am      1 <0>        -0.6315
      9 C8          2.8179    3.6057    0.4534 C.2       1 <0>         0.5349
     10 O1          1.7936    3.0806    0.8354 O.2       1 <0>        -0.5236
     11 C9          2.9775    5.1014    0.5452 C.3       1 <0>        -0.1451
     12 S1          1.4782    5.8265    1.2641 S.3       1 <0>         0.0909
     13 C10         1.8176    7.5551    1.3039 C.2       1 <0>         0.2141
     14 N2          2.9229    8.1242    0.8982 N.2       1 <0>        -0.2913
     15 N3          2.7962    9.5064    1.0945 N.2       1 <0>        -0.2532
     16 C11         1.6264    9.7220    1.6175 C.2       1 <0>         0.1924
     17 N4          0.9595    8.5362    1.7759 N.pl3     1 <0>        -0.4580
     18 C12        -0.3291    8.5726    2.3310 C.ar      1 <0>         0.0993
     19 C13        -1.1667    7.4715    2.5711 C.ar      1 <0>        -0.0902
     20 C14        -2.4142    7.6435    3.1231 C.ar      1 <0>        -0.0869
     21 C15        -2.8836    8.9022    3.4586 C.ar      1 <0>        -0.0983
     22 C16        -2.0784   10.0047    3.2322 C.ar      1 <0>        -0.0508
     23 C17        -0.8302    9.8304    2.6800 C.ar      1 <0>        -0.1289
     24 S2          0.4865   10.9368    2.2358 S.3       1 <0>         0.1709
     25 C18         5.9164    1.3462    1.1343 C.2       1 <0>         0.4930
     26 O2          6.0650    2.5469    1.0211 O.co2     1 <0>        -0.6313
     27 H1          0.7613    1.8944   -0.4627 H         1 <0>         0.0869
     28 H2          1.9326    2.5778   -1.6157 H         1 <0>         0.0510
     29 H3          1.0491    1.0871   -2.0228 H         1 <0>         0.0529
     30 H4          1.6459   -1.0274   -0.9921 H         1 <0>         0.1184
     31 H5          3.4257   -2.3837    0.0278 H         1 <0>         0.1190
     32 H6          5.3994   -1.3015    1.0105 H         1 <0>         0.1337
     33 H7          4.5989    3.2761   -0.4320 H         1 <0>         0.4216
     34 H8          3.8341    5.3373    1.1767 H         1 <0>         0.1357
     35 H9          3.1374    5.5115   -0.4520 H         1 <0>         0.1272
     36 H10        -0.8270    6.4777    2.3194 H         1 <0>         0.1388
     37 H11        -3.0395    6.7806    3.2987 H         1 <0>         0.1434
     38 H12        -3.8658    9.0221    3.8913 H         1 <0>         0.1463
     39 H13        -2.4272   10.9946    3.4869 H         1 <0>         0.1466
     40 O3          6.8321    0.6136    1.7981 O.co2     1 <0>        -0.7480
@<TRIPOS>BOND
     1    1    2 1
     2    1   27 1
     3    1   28 1
     4    1   29 1
     5    2    7 ar
     6    2    3 ar
     7    3    4 ar
     8    3   30 1
     9    4    5 ar
    10    4   31 1
    11    5    6 ar
    12    5   32 1
    13    6    7 ar
    14    6   25 1
    15    7    8 1
    16    8    9 am
    17    8   33 1
    18    9   10 2
    19    9   11 1
    20   11   12 1
    21   11   34 1
    22   11   35 1
    23   12   13 1
    24   13   17 1
    25   13   14 2
    26   14   15 1
    27   15   16 2
    28   16   24 1
    29   16   17 1
    30   17   18 1
    31   18   23 ar
    32   18   19 ar
    33   19   20 ar
    34   19   36 1
    35   20   21 ar
    36   20   37 1
    37   21   22 ar
    38   21   38 1
    39   22   23 ar
    40   22   39 1
    41   23   24 1
    42   25   26 2
    43   25   40 1
@<TRIPOS>MOLECULE
ZINC35010325
   45    48     0     0     0
SMALL
USER_CHARGES

@<TRIPOS>ATOM
      1 C1          0.3135   -0.2419    1.1916 C.3       1 <0>         0.0265
      2 O1         -0.2169   -0.0209   -0.1168 O.3       1 <0>        -0.3167
      3 C2          0.4267   -0.6210   -1.1531 C.ar      1 <0>         0.1262
      4 C3          1.5420   -1.4105   -0.9129 C.ar      1 <0>        -0.1947
      5 C4          2.1960   -2.0203   -1.9649 C.ar      1 <0>        -0.0769
      6 C5          1.7374   -1.8432   -3.2635 C.ar      1 <0>         0.0869
      7 C6          0.6211   -1.0529   -3.5032 C.ar      1 <0>        -0.0477
      8 C7         -0.0355   -0.4483   -2.4498 C.ar      1 <0>        -0.1390
      9 N1          2.4013   -2.4616   -4.3321 N.am      1 <0>        -0.4341
     10 C8          2.8716   -1.7096   -5.3493 C.2       1 <0>         0.5637
     11 C9          3.5411   -2.3376   -6.4261 C.2       1 <0>        -0.4703
     12 C10         3.7145   -3.7221   -6.4377 C.2       1 <0>         0.3951
     13 O2          4.3550   -4.3169   -7.4682 O.3       1 <0>        -0.5827
     14 C11         3.2127   -4.5079   -5.3560 C.2       1 <0>        -0.0350
     15 C12         2.5677   -3.8064   -4.3282 C.2       1 <0>         0.1155
     16 S1          2.1175   -5.1136   -3.2093 S.3       1 <0>        -0.0127
     17 C13         2.8064   -6.4635   -4.1564 C.2       1 <0>         0.0679
     18 N2          3.2880   -5.8481   -5.2004 N.2       1 <0>        -0.4243
     19 C14         4.0553   -1.5289   -7.5362 C.2       1 <0>         0.5981
     20 O3          4.5193   -2.0726   -8.5212 O.2       1 <0>        -0.5490
     21 N3          4.0139   -0.1837   -7.4657 N.am      1 <0>        -0.7395
     22 C15         4.4170    0.6231   -8.6201 C.3       1 <0>         0.1637
     23 C16         4.2792    2.0856   -8.2836 C.ar      1 <0>        -0.0984
     24 C17         3.0866    2.7410   -8.5274 C.ar      1 <0>        -0.0707
     25 C18         2.9588    4.0820   -8.2188 C.ar      1 <0>        -0.1554
     26 C19         4.0258    4.7692   -7.6654 C.ar      1 <0>         0.0930
     27 C20         5.2198    4.1118   -7.4217 C.ar      1 <0>        -0.1562
     28 C21         5.3435    2.7694   -7.7262 C.ar      1 <0>        -0.0737
     29 F1          3.9022    6.0803   -7.3637 F         1 <0>        -0.1444
     30 O4          2.7205   -0.5000   -5.3407 O.2       1 <0>        -0.5661
     31 H1          0.2971   -1.3086    1.4150 H         1 <0>         0.0558
     32 H2          1.3399    0.1225    1.2339 H         1 <0>         0.0556
     33 H3         -0.2920    0.2921    1.9240 H         1 <0>         0.0985
     34 H4          1.8988   -1.5479    0.0971 H         1 <0>         0.1334
     35 H5          3.0644   -2.6345   -1.7779 H         1 <0>         0.1291
     36 H6          0.2639   -0.9148   -4.5130 H         1 <0>         0.1371
     37 H7         -0.9063    0.1628   -2.6356 H         1 <0>         0.1369
     38 H8          2.8132   -7.5190   -3.9278 H         1 <0>         0.2284
     39 H9          3.7172    0.2503   -6.6505 H         1 <0>         0.4093
     40 H10         5.4548    0.4044   -8.8716 H         1 <0>         0.0663
     41 H11         3.7789    0.3843   -9.4709 H         1 <0>         0.0651
     42 H12         2.2545    2.2048   -8.9594 H         1 <0>         0.1343
     43 H13         2.0271    4.5938   -8.4097 H         1 <0>         0.1336
     44 H14         6.0528    4.6469   -6.9903 H         1 <0>         0.1334
     45 H15         6.2733    2.2553   -7.5321 H         1 <0>         0.1341
@<TRIPOS>BOND
     1    1    2 1
     2    1   31 1
     3    1   32 1
     4    1   33 1
     5    2    3 1
     6    3    8 ar
     7    3    4 ar
     8    4    5 ar
     9    4   34 1
    10    5    6 ar
    11    5   35 1
    12    6    7 ar
    13    6    9 1
    14    7    8 ar
    15    7   36 1
    16    8   37 1
    17    9   15 1
    18    9   10 am
    19   10   11 1
    20   10   30 2
    21   11   12 2
    22   11   19 1
    23   12   13 1
    24   12   14 1
    25   14   18 1
    26   14   15 2
    27   15   16 1
    28   16   17 1
    29   17   18 2
    30   17   38 1
    31   19   20 2
    32   19   21 am
    33   21   22 1
    34   21   39 1
    35   22   23 1
    36   22   40 1
    37   22   41 1
    38   23   28 ar
    39   23   24 ar
    40   24   25 ar
    41   24   42 1
    42   25   26 ar
    43   25   43 1
    44   26   27 ar
    45   26   29 1
    46   27   28 ar
    47   27   44 1
    48   28   45 1
@<TRIPOS>MOLECULE
ZINC02312394
   45    47     0     0     0
SMALL
USER_CHARGES

@<TRIPOS>ATOM
      1 C1          0.6913    1.4916    0.0188 C.3       1 <0>        -0.0961
      2 C2          0.4989   -0.0031    0.0107 C.ar      1 <0>         0.1982
      3 C3          0.3526   -0.6851   -1.1873 C.ar      1 <0>        -0.3425
      4 C4          0.1783   -2.0594   -1.1502 C.ar      1 <0>         0.1883
      5 N1          0.1568   -2.6759    0.0200 N.ar      1 <0>        -0.6252
      6 C5          0.2995   -1.9944    1.1471 C.ar      1 <0>         0.5986
      7 N2          0.4729   -0.6807    1.1462 N.ar      1 <0>        -0.5514
      8 N3          0.2716   -2.6714    2.3540 N.2       1 <0>        -1.0510
      9 S1          0.0617   -4.3138    2.3775 S.o2      1 <0>         2.6426
     10 O1         -1.2510   -4.5625    1.8935 O.2       1 <0>        -1.0168
     11 O2          1.2164   -4.8795    1.7727 O.2       1 <0>        -1.0179
     12 C6          0.0796   -4.8173    4.0659 C.ar      1 <0>        -0.6356
     13 C7          1.2747   -5.1615    4.6705 C.ar      1 <0>        -0.0029
     14 C8          1.2922   -5.5570    5.9936 C.ar      1 <0>        -0.1700
     15 C9          0.1077   -5.6083    6.7173 C.ar      1 <0>         0.1782
     16 C10        -1.0909   -5.2614    6.1071 C.ar      1 <0>        -0.1446
     17 C11        -1.1007   -4.8618    4.7851 C.ar      1 <0>        -0.0026
     18 N4          0.1218   -6.0087    8.0568 N.am      1 <0>        -0.6681
     19 C12        -0.9223   -6.6911    8.5672 C.2       1 <0>         0.5450
     20 O3         -1.8333   -7.0425    7.8406 O.2       1 <0>        -0.5189
     21 C13        -0.9607   -7.0097    9.9955 C.2       1 <0>        -0.2110
     22 C14        -2.0053   -7.6924   10.5061 C.2       1 <0>        -0.0146
     23 C15        -2.0439   -8.0127   11.9423 C.ar      1 <0>        -0.0767
     24 C16        -1.0019   -7.6057   12.7814 C.ar      1 <0>        -0.1008
     25 C17        -1.0453   -7.9096   14.1256 C.ar      1 <0>        -0.1228
     26 C18        -2.1165   -8.6156   14.6449 C.ar      1 <0>        -0.1092
     27 C19        -3.1516   -9.0219   13.8209 C.ar      1 <0>        -0.1231
     28 C20        -3.1255   -8.7206   12.4756 C.ar      1 <0>        -0.0936
     29 H1          1.7556    1.7211   -0.0341 H         1 <0>         0.0727
     30 H2          0.1824    1.9281   -0.8406 H         1 <0>         0.0685
     31 H3          0.2753    1.9065    0.9369 H         1 <0>         0.0727
     32 H4          0.3737   -0.1568   -2.1290 H         1 <0>         0.1216
     33 H5          0.0611   -2.6203   -2.0657 H         1 <0>         0.1436
     34 H6          2.1953   -5.1214    4.1073 H         1 <0>         0.1412
     35 H7          2.2258   -5.8264    6.4650 H         1 <0>         0.1296
     36 H8         -2.0136   -5.3002    6.6670 H         1 <0>         0.1375
     37 H9         -2.0317   -4.5878    4.3113 H         1 <0>         0.1404
     38 H10         0.8831   -5.7953    8.6188 H         1 <0>         0.4120
     39 H11        -0.1523   -6.6978   10.6402 H         1 <0>         0.1327
     40 H12        -2.8137   -8.0042    9.8613 H         1 <0>         0.1388
     41 H13        -0.1652   -7.0551   12.3775 H         1 <0>         0.1282
     42 H14        -0.2411   -7.5963   14.7749 H         1 <0>         0.1260
     43 H15        -2.1446   -8.8510   15.6986 H         1 <0>         0.1240
     44 H16        -3.9841   -9.5724   14.2336 H         1 <0>         0.1263
     45 H17        -3.9362   -9.0345   11.8347 H         1 <0>         0.1293
@<TRIPOS>BOND
     1    1    2 1
     2    1   29 1
     3    1   30 1
     4    1   31 1
     5    2    7 ar
     6    2    3 ar
     7    3    4 ar
     8    3   32 1
     9    4    5 ar
    10    4   33 1
    11    5    6 ar
    12    6    7 ar
    13    6    8 1
    14    8    9 1
    15    9   10 2
    16    9   11 2
    17    9   12 1
    18   12   17 ar
    19   12   13 ar
    20   13   14 ar
    21   13   34 1
    22   14   15 ar
    23   14   35 1
    24   15   16 ar
    25   15   18 1
    26   16   17 ar
    27   16   36 1
    28   17   37 1
    29   18   19 am
    30   18   38 1
    31   19   20 2
    32   19   21 1
    33   21   22 2
    34   21   39 1
    35   22   23 1
    36   22   40 1
    37   23   28 ar
    38   23   24 ar
    39   24   25 ar
    40   24   41 1
    41   25   26 ar
    42   25   42 1
    43   26   27 ar
    44   26   43 1
    45   27   28 ar
    46   27   44 1
    47   28   45 1
@<TRIPOS>MOLECULE
ZINC57720508
   40    42     0     0     0
SMALL
USER_CHARGES

@<TRIPOS>ATOM
      1 C1         -2.1938    1.4701    0.6085 C.3       1 <0>        -0.1715
      2 C2         -2.1691   -0.0367    0.6077 C.2       1 <0>         0.5072
      3 O1         -3.0611   -0.6581    1.1455 O.2       1 <0>        -0.5185
      4 N1         -1.1558   -0.6938    0.0094 N.am      1 <0>        -0.6765
      5 C3         -1.0812   -2.0886    0.0915 C.ar      1 <0>         0.1803
      6 C4          0.1549   -2.7155    0.1777 C.ar      1 <0>        -0.1685
      7 C5          0.2252   -4.0924    0.2586 C.ar      1 <0>        -0.0015
      8 C6         -0.9337   -4.8468    0.2538 C.ar      1 <0>        -0.6347
      9 C7         -2.1662   -4.2257    0.1675 C.ar      1 <0>        -0.0014
     10 C8         -2.2435   -2.8487    0.0926 C.ar      1 <0>        -0.1450
     11 S1         -0.8398   -6.6033    0.3571 S.o2      1 <0>         2.6233
     12 O2         -2.0382   -7.1084   -0.2156 O.2       1 <0>        -1.0041
     13 O3          0.4469   -6.9700   -0.1215 O.2       1 <0>        -1.0051
     14 N2         -0.8785   -7.0020    1.9639 N.2       1 <0>        -1.0056
     15 C9         -0.8190   -8.3311    2.3493 C.2       1 <0>         0.4972
     16 N3         -0.8415   -8.8496    3.5629 N.2       1 <0>        -0.5824
     17 C10        -0.7743  -10.1664    3.7506 C.2       1 <0>         0.1294
     18 C11        -0.6804  -10.9920    2.6644 C.2       1 <0>        -0.2482
     19 S2         -0.6995   -9.7973    1.3345 S.3       1 <0>        -0.2134
     20 C12        -0.8004  -10.7301    5.1197 C.ar      1 <0>         0.0351
     21 C13        -0.7232  -12.1116    5.3069 C.ar      1 <0>        -0.1151
     22 C14        -0.7477  -12.6346    6.5740 C.ar      1 <0>        -0.0691
     23 C15        -0.8497  -11.7839    7.6791 C.ar      1 <0>        -0.0521
     24 C16        -0.9265  -10.4005    7.4904 C.ar      1 <0>        -0.0705
     25 C17        -0.8965   -9.8794    6.2226 C.ar      1 <0>        -0.0922
     26 C18        -0.8758  -12.3290    9.0030 C.1       1 <0>         0.2656
     27 N4         -0.8966  -12.7615   10.0533 N.1       1 <0>        -0.4379
     28 H1         -3.0822    1.8186    1.1352 H         1 <0>         0.0967
     29 H2         -1.3026    1.8478    1.1098 H         1 <0>         0.0916
     30 H3         -2.2144    1.8337   -0.4188 H         1 <0>         0.0910
     31 H4         -0.4782   -0.1997   -0.4782 H         1 <0>         0.4124
     32 H5          1.0605   -2.1269    0.1812 H         1 <0>         0.1320
     33 H6          1.1863   -4.5806    0.3253 H         1 <0>         0.1436
     34 H7         -3.0695   -4.8176    0.1637 H         1 <0>         0.1429
     35 H8         -3.2065   -2.3639    0.0305 H         1 <0>         0.1441
     36 H9         -0.6169  -12.0693    2.6215 H         1 <0>         0.1783
     37 H10        -0.6444  -12.7684    4.4533 H         1 <0>         0.1353
     38 H11        -0.6886  -13.7032    6.7185 H         1 <0>         0.1299
     39 H12        -1.0053   -9.7425    8.3432 H         1 <0>         0.1299
     40 H13        -0.9517   -8.8107    6.0768 H         1 <0>         0.1475
@<TRIPOS>BOND
     1    1    2 1
     2    1   28 1
     3    1   29 1
     4    1   30 1
     5    2    3 2
     6    2    4 am
     7    4    5 1
     8    4   31 1
     9    5   10 ar
    10    5    6 ar
    11    6    7 ar
    12    6   32 1
    13    7    8 ar
    14    7   33 1
    15    8    9 ar
    16    8   11 1
    17    9   10 ar
    18    9   34 1
    19   10   35 1
    20   11   12 2
    21   11   13 2
    22   11   14 1
    23   14   15 1
    24   15   19 1
    25   15   16 2
    26   16   17 1
    27   17   18 2
    28   17   20 1
    29   18   19 1
    30   18   36 1
    31   20   25 ar
    32   20   21 ar
    33   21   22 ar
    34   21   37 1
    35   22   23 ar
    36   22   38 1
    37   23   24 ar
    38   23   26 1
    39   24   25 ar
    40   24   39 1
    41   25   40 1
    42   26   27 3
@<TRIPOS>MOLECULE
ZINC64099796
   39    41     0     0     0
SMALL
USER_CHARGES

@<TRIPOS>ATOM
      1 C1         -0.0167    1.3792    0.0096 C.ar      1 <0>        -0.0892
      2 C2          1.1684    2.0937    0.0021 C.ar      1 <0>        -0.1238
      3 C3          2.3774    1.4300   -0.0134 C.ar      1 <0>        -0.0710
      4 C4          2.4037    0.0338   -0.0212 C.ar      1 <0>        -0.0188
      5 C5          1.2043   -0.6808   -0.0131 C.ar      1 <0>        -0.0277
      6 C6          0.0021   -0.0041    0.0020 C.ar      1 <0>        -0.1093
      7 C7          1.2228   -2.1876   -0.0219 C.3       1 <0>        -0.5885
      8 S1          1.2475   -2.8020    1.6847 S.o2      1 <0>         2.5711
      9 O1          2.4846   -2.4771    2.3039 O.2       1 <0>        -0.9866
     10 O2          0.0156   -2.5075    2.3288 O.2       1 <0>        -0.9915
     11 N1          1.2664   -4.4518    1.5428 N.2       1 <0>        -1.0751
     12 C8          1.2864   -5.1980    2.6122 C.2       1 <0>         0.5313
     13 O3          1.2917   -4.6242    3.8376 O.3       1 <0>        -0.6744
     14 C9          1.3032   -6.6643    2.4862 C.2       1 <0>        -0.1627
     15 C10         1.3037   -7.2637    1.2245 C.2       1 <0>         0.0171
     16 C11         1.3202   -8.6469    1.1329 C.2       1 <0>        -0.2079
     17 C12         1.3359   -9.4154    2.2883 C.2       1 <0>         0.2368
     18 N2          1.3348   -8.8214    3.5217 N.am      1 <0>        -0.6048
     19 H1          1.3456   -9.3736    4.3192 H         1 <0>         0.4071
     20 C13         1.3249   -7.4805    3.6418 C.2       1 <0>         0.5236
     21 O4          1.3293   -6.9686    4.7484 O.2       1 <0>        -0.4965
     22 C14         1.3532  -10.8768    2.1871 C.2       1 <0>        -0.1763
     23 C15         1.3647  -11.8237    3.2013 C.2       1 <0>        -0.1300
     24 C16         1.3802  -13.1363    2.7916 C.2       1 <0>        -0.1687
     25 C17         1.3833  -13.4123    1.4645 C.2       1 <0>        -0.2531
     26 S2          1.3574  -11.9022    0.7289 S.3       1 <0>         0.2386
     27 C18         3.6553   -0.6619   -0.0379 C.1       1 <0>         0.2459
     28 N3          4.6481   -1.2138   -0.0511 N.1       1 <0>        -0.3965
     29 H2         -0.9605    1.9039    0.0260 H         1 <0>         0.1343
     30 H3          1.1466    3.1734    0.0082 H         1 <0>         0.1347
     31 H4          3.3016    1.9888   -0.0200 H         1 <0>         0.1357
     32 H5         -0.9265   -0.5555    0.0083 H         1 <0>         0.1413
     33 H6          0.3322   -2.5589   -0.5289 H         1 <0>         0.1432
     34 H7          2.1119   -2.5370   -0.5468 H         1 <0>         0.1313
     35 H8          1.2911   -6.6570    0.3311 H         1 <0>         0.1563
     36 H9          1.3205   -9.1253    0.1646 H         1 <0>         0.1435
     37 H10         1.3619  -11.5475    4.2454 H         1 <0>         0.1410
     38 H11         1.3902  -13.9362    3.5171 H         1 <0>         0.1335
     39 H12         1.3951  -14.3818    0.9887 H         1 <0>         0.1863
@<TRIPOS>BOND
     1    1    6 ar
     2    1    2 ar
     3    1   29 1
     4    2    3 ar
     5    2   30 1
     6    3    4 ar
     7    3   31 1
     8    4    5 ar
     9    4   27 1
    10    5    6 ar
    11    5    7 1
    12    6   32 1
    13    7    8 1
    14    7   33 1
    15    7   34 1
    16    8    9 2
    17    8   10 2
    18    8   11 1
    19   11   12 2
    20   12   13 1
    21   12   14 1
    22   14   20 1
    23   14   15 2
    24   15   16 1
    25   15   35 1
    26   16   17 2
    27   16   36 1
    28   17   18 1
    29   17   22 1
    30   18   19 1
    31   18   20 am
    32   20   21 2
    33   22   26 1
    34   22   23 2
    35   23   24 1
    36   23   37 1
    37   24   25 2
    38   24   38 1
    39   25   26 1
    40   25   39 1
    41   27   28 3
@<TRIPOS>MOLECULE
ZINC01885571
   48    51     0     0     0
SMALL
USER_CHARGES
2-[5-[5-bromo-2-oxo-1-(p-tolylmethyl)indolin-3-ylidene]-4-oxo-2-thioxo-thiazolidin-3-yl]ethanesulfonic acid
@<TRIPOS>ATOM
      1 C1         -3.5582    6.8912   -5.3713 C.3       1 <0>        -0.1181
      2 C2         -3.4059    6.3993   -3.9550 C.ar      1 <0>        -0.0747
      3 C3         -4.4866    5.8428   -3.2967 C.ar      1 <0>        -0.1207
      4 C4         -4.3470    5.3920   -1.9974 C.ar      1 <0>        -0.0878
      5 C5         -3.1265    5.4969   -1.3567 C.ar      1 <0>        -0.1292
      6 C6         -2.0471    6.0578   -2.0134 C.ar      1 <0>        -0.0958
      7 C7         -2.1857    6.5050   -3.3141 C.ar      1 <0>        -0.1249
      8 C8         -2.9743    5.0055    0.0597 C.3       1 <0>         0.1562
      9 N1         -2.5702    3.5974    0.0473 N.am      1 <0>        -0.5427
     10 C9         -1.2499    3.1608    0.0320 C.ar      1 <0>         0.1997
     11 C10        -0.0468    3.8570    0.0242 C.ar      1 <0>        -0.1380
     12 C11         1.1513    3.1712    0.0086 C.ar      1 <0>        -0.0291
     13 C12         1.1719    1.7855    0.0005 C.ar      1 <0>        -0.1228
     14 C13        -0.0126    1.0758    0.0080 C.ar      1 <0>        -0.0072
     15 C14        -1.2261    1.7587    0.0174 C.ar      1 <0>        -0.1313
     16 C15        -2.6361    1.3164    0.0208 C.2       1 <0>         0.0052
     17 C16        -3.1102    0.0189    0.0152 C.2       1 <0>        -0.1182
     18 C17        -4.5128   -0.4793    0.0182 C.2       1 <0>         0.5214
     19 O1         -5.4627    0.2787    0.0274 O.2       1 <0>        -0.3911
     20 N2         -4.6680   -1.7928    0.0108 N.am      1 <0>        -0.5120
     21 C18        -3.6110   -2.6291    0.0006 C.2       1 <0>         0.2711
     22 S1         -3.6130   -4.3411   -0.0098 S.2       1 <0>        -0.2836
     23 S2         -2.2084   -1.5245   -0.0055 S.3       1 <0>         0.0715
     24 C19        -6.0219   -2.3523    0.0132 C.3       1 <0>         0.1011
     25 C20        -6.4995   -2.5382   -1.4284 C.3       1 <0>        -0.6910
     26 S3         -8.1760   -3.2310   -1.4254 S.o2      1 <0>         2.6405
     27 O2         -8.1546   -4.5621   -0.9284 O.2       1 <0>        -1.0391
     28 O3         -9.0976   -2.2801   -0.9102 O.2       1 <0>        -1.0444
     29 C21        -3.4283    2.5630    0.0309 C.2       1 <0>         0.5539
     30 O4         -4.6426    2.6398    0.0357 O.2       1 <0>        -0.4248
     31 Br1         2.8239    0.8656   -0.0203 Br        1 <0>        -0.0339
     32 H1         -3.8594    7.9387   -5.3618 H         1 <0>         0.0722
     33 H2         -2.6074    6.7913   -5.8949 H         1 <0>         0.0671
     34 H3         -4.3180    6.2993   -5.8818 H         1 <0>         0.0686
     35 H4         -5.4400    5.7605   -3.7973 H         1 <0>         0.1256
     36 H5         -5.1913    4.9576   -1.4829 H         1 <0>         0.1290
     37 H6         -1.0948    6.1438   -1.5114 H         1 <0>         0.1214
     38 H7         -1.3415    6.9402   -3.8283 H         1 <0>         0.1235
     39 H8         -3.9250    5.1060    0.5833 H         1 <0>         0.1060
     40 H9         -2.2142    5.5971    0.5699 H         1 <0>         0.1011
     41 H10        -0.0492    4.9370    0.0308 H         1 <0>         0.1421
     42 H11         2.0815    3.7199    0.0030 H         1 <0>         0.1474
     43 H12         0.0021   -0.0041    0.0020 H         1 <0>         0.1412
     44 H13        -6.0155   -3.3167    0.5211 H         1 <0>         0.1231
     45 H14        -6.6954   -1.6718    0.5342 H         1 <0>         0.1150
     46 H15        -6.5058   -1.5737   -1.9363 H         1 <0>         0.1132
     47 H16        -5.8260   -3.2187   -1.9494 H         1 <0>         0.1183
     48 O5         -8.5438   -3.3713   -2.8956 O.3       1 <0>        -1.0750
@<TRIPOS>BOND
     1    1    2 1
     2    1   32 1
     3    1   33 1
     4    1   34 1
     5    2    7 ar
     6    2    3 ar
     7    3    4 ar
     8    3   35 1
     9    4    5 ar
    10    4   36 1
    11    5    6 ar
    12    5    8 1
    13    6    7 ar
    14    6   37 1
    15    7   38 1
    16    8    9 1
    17    8   39 1
    18    8   40 1
    19    9   29 am
    20    9   10 1
    21   10   15 ar
    22   10   11 ar
    23   11   12 ar
    24   11   41 1
    25   12   13 ar
    26   12   42 1
    27   13   14 ar
    28   13   31 1
    29   14   15 ar
    30   14   43 1
    31   15   16 1
    32   16   17 2
    33   16   29 1
    34   17   23 1
    35   17   18 1
    36   18   19 2
    37   18   20 am
    38   20   21 1
    39   20   24 1
    40   21   22 2
    41   21   23 1
    42   24   25 1
    43   24   44 1
    44   24   45 1
    45   25   26 1
    46   25   46 1
    47   25   47 1
    48   26   27 2
    49   26   28 2
    50   26   48 1
    51   29   30 2
@<TRIPOS>MOLECULE
ZINC13401616
   50    53     0     0     0
SMALL
USER_CHARGES
5-[4-[2-[(1R,2S,4S)-norbornan-2-yl]acetyl]piperazin-1-yl]sulfonylthiophene-3-carboxylic acid
@<TRIPOS>ATOM
      1 C1         -5.8788   -2.2941    1.3368 C.2       1 <0>         0.0486
      2 C2         -6.0793   -2.7598    2.6865 C.2       1 <0>        -0.1933
      3 C3         -5.4902   -3.9601    3.0295 C.2       1 <0>        -0.1123
      4 S1         -4.6976   -4.4451    1.5684 S.3       1 <0>         0.1594
      5 C4         -5.1340   -3.0693    0.5250 C.2       1 <0>        -0.8014
      6 S2         -4.7029   -2.7931   -1.1610 S.o2      1 <0>         2.7310
      7 O1         -5.6944   -1.9279   -1.6972 O.2       1 <0>        -0.9480
      8 O2         -4.4200   -4.0677   -1.7219 O.2       1 <0>        -0.9511
      9 N1         -3.2802   -1.9456   -1.1701 N.pl3     1 <0>        -0.9961
     10 C5         -1.9903   -2.6497   -1.1867 C.3       1 <0>         0.1080
     11 C6         -1.1511   -2.1634    0.0014 C.3       1 <0>         0.0939
     12 N2         -1.1558   -0.6938    0.0094 N.am      1 <0>        -0.6107
     13 C7         -2.4457    0.0103    0.0316 C.3       1 <0>         0.0871
     14 C8         -3.2849   -0.4760   -1.1621 C.3       1 <0>         0.1054
     15 C9          0.0021   -0.0041    0.0020 C.2       1 <0>         0.5169
     16 O3          1.0605   -0.5961   -0.0113 O.2       1 <0>        -0.5380
     17 C10        -0.0184    1.5028    0.0103 C.3       1 <0>        -0.1369
     18 C11         1.4170    2.0324   -0.0006 C.3       1 <0>        -0.0702
     19 H1          1.9631    1.6303   -0.8539 H         1 <0>         0.0784
     20 C12         2.1356    1.6687    1.3189 C.3       1 <0>        -0.1034
     21 C13         2.5060    3.0422    1.9575 C.3       1 <0>        -0.1096
     22 H2          2.7246    3.0277    3.0252 H         1 <0>         0.0951
     23 C14         3.6314    3.6088    1.0389 C.3       1 <0>        -0.1212
     24 C15         2.9129    3.9724   -0.2805 C.3       1 <0>        -0.1198
     25 C16         1.4210    3.5912   -0.0350 C.3       1 <0>        -0.1009
     26 H3          0.6947    4.0550   -0.7024 H         1 <0>         0.0980
     27 C17         1.2868    3.9155    1.4948 C.3       1 <0>        -0.1241
     28 C18        -6.8759   -1.9908    3.6540 C.2       1 <0>         0.5050
     29 O4         -7.3829   -0.9369    3.3226 O.co2     1 <0>        -0.6274
     30 H4         -6.3067   -1.3644    0.9919 H         1 <0>         0.1526
     31 H5         -5.5202   -4.4746    3.9786 H         1 <0>         0.1975
     32 H6         -1.4668   -2.4323   -2.1177 H         1 <0>         0.0804
     33 H7         -2.1558   -3.7238   -1.1023 H         1 <0>         0.1047
     34 H8         -0.1281   -2.5254   -0.1007 H         1 <0>         0.1055
     35 H9         -1.5825   -2.5356    0.9307 H         1 <0>         0.0766
     36 H10        -2.9670   -0.2107    0.9630 H         1 <0>         0.0829
     37 H11        -2.2777    1.0841   -0.0505 H         1 <0>         0.1000
     38 H12        -2.8535   -0.1038   -2.0914 H         1 <0>         0.0821
     39 H13        -4.3082   -0.1140   -1.0630 H         1 <0>         0.1073
     40 H14        -0.5455    1.8639   -0.8728 H         1 <0>         0.0936
     41 H15        -0.5286    1.8543    0.9071 H         1 <0>         0.0953
     42 H16         1.4662    1.1127    1.9753 H         1 <0>         0.0598
     43 H17         3.0349    1.0879    1.1143 H         1 <0>         0.0662
     44 H18         4.0761    4.4975    1.4869 H         1 <0>         0.0594
     45 H19         4.3948    2.8512    0.8617 H         1 <0>         0.0628
     46 H20         3.0042    5.0399   -0.4813 H         1 <0>         0.0615
     47 H21         3.3233    3.3944   -1.1085 H         1 <0>         0.0634
     48 H22         0.3451    3.5544    1.9081 H         1 <0>         0.0692
     49 H23         1.4399    4.9744    1.7032 H         1 <0>         0.0675
     50 O5         -7.0439   -2.4546    4.9085 O.co2     1 <0>        -0.7509
@<TRIPOS>BOND
     1    1    5 2
     2    1    2 1
     3    1   30 1
     4    2    3 2
     5    2   28 1
     6    3    4 1
     7    3   31 1
     8    4    5 1
     9    5    6 1
    10    6    7 2
    11    6    8 2
    12    6    9 1
    13    9   14 1
    14    9   10 1
    15   10   11 1
    16   10   32 1
    17   10   33 1
    18   11   12 1
    19   11   34 1
    20   11   35 1
    21   12   13 1
    22   12   15 am
    23   13   14 1
    24   13   36 1
    25   13   37 1
    26   14   38 1
    27   14   39 1
    28   15   16 2
    29   15   17 1
    30   17   18 1
    31   17   40 1
    32   17   41 1
    33   18   19 1
    34   18   25 1
    35   18   20 1
    36   20   21 1
    37   20   42 1
    38   20   43 1
    39   21   22 1
    40   21   27 1
    41   21   23 1
    42   23   24 1
    43   23   44 1
    44   23   45 1
    45   24   25 1
    46   24   46 1
    47   24   47 1
    48   25   26 1
    49   25   27 1
    50   27   48 1
    51   27   49 1
    52   28   29 2
    53   28   50 1
@<TRIPOS>MOLECULE
ZINC36049195
   44    46     0     0     0
SMALL
USER_CHARGES

@<TRIPOS>ATOM
      1 C1         -0.0173    1.4248    0.0099 C.3       1 <0>         0.0356
      2 O1          0.0021   -0.0041    0.0020 O.3       1 <0>        -0.3272
      3 C2          0.5984   -0.5997   -1.0427 C.2       1 <0>         0.4846
      4 O2          1.0877    0.0699   -1.9214 O.2       1 <0>        -0.4962
      5 C3          0.6575   -2.1036   -1.1196 C.3       1 <0>        -0.1286
      6 H1         -0.3557   -2.5053   -1.1291 H         1 <0>         0.1283
      7 C4          1.3797   -2.5179   -2.4029 C.3       1 <0>         0.0426
      8 H2          0.7593   -2.2759   -3.2658 H         1 <0>         0.1142
      9 C5          1.6329   -4.0289   -2.3596 C.3       1 <0>         0.1545
     10 C6          2.6944   -4.3192   -1.2972 C.3       1 <0>         0.1155
     11 H3          3.6579   -3.9378   -1.6350 H         1 <0>         0.1058
     12 C7          2.3221   -3.6557   -0.0021 C.2       1 <0>        -0.4921
     13 C8          2.9292   -4.0774    1.1453 C.2       1 <0>         0.4818
     14 O3          3.8407   -5.0690    1.1001 O.3       1 <0>        -0.6596
     15 O4          2.6170   -3.5023    2.3234 O.3       1 <0>        -0.3087
     16 C9          3.2909   -3.9935    3.4839 C.3       1 <0>         0.0423
     17 C10         1.3931   -2.6351    0.0772 C.2       1 <0>         0.3978
     18 O5          1.1598   -2.1476    1.1667 O.2       1 <0>        -0.5012
     19 C11         2.7933   -5.8077   -1.0830 C.2       1 <0>        -0.0723
     20 C12         3.8629   -6.6242   -1.2456 C.2       1 <0>        -0.1494
     21 C13         3.7209   -7.9746   -0.9866 C.2       1 <0>        -0.1385
     22 C14         2.5162   -8.4423   -0.5778 C.2       1 <0>        -0.2128
     23 S1          1.5342   -6.9518   -0.5419 S.3       1 <0>         0.0269
     24 C15         0.3848   -4.7289   -2.0146 C.1       1 <0>         0.2150
     25 N1         -0.5784   -5.2691   -1.7483 N.1       1 <0>        -0.3730
     26 C16         2.1119   -4.4869   -3.6740 C.1       1 <0>         0.2242
     27 N2          2.4816   -4.8403   -4.6883 N.1       1 <0>        -0.3917
     28 C17         2.6927   -1.7851   -2.5030 C.2       1 <0>        -0.1535
     29 C18         3.1225   -0.9311   -3.4639 C.2       1 <0>        -0.1189
     30 C19         4.3799   -0.3689   -3.3473 C.2       1 <0>        -0.1627
     31 C20         5.1459   -0.6882   -2.2756 C.2       1 <0>        -0.2209
     32 S2          4.0826   -1.8103   -1.3828 S.3       1 <0>         0.1349
     33 H4          1.0053    1.8021    0.0021 H         1 <0>         0.0572
     34 H5         -0.5445    1.7859   -0.8732 H         1 <0>         0.0540
     35 H6         -0.5275    1.7763    0.9067 H         1 <0>         0.0969
     36 H7          4.3656   -3.8547    3.3659 H         1 <0>         0.0435
     37 H8          2.9481   -3.4461    4.3620 H         1 <0>         0.0766
     38 H9          3.0730   -5.0541    3.6089 H         1 <0>         0.0432
     39 H10         4.8119   -6.2258   -1.5729 H         1 <0>         0.1219
     40 H11         4.5572   -8.6469   -1.1085 H         1 <0>         0.1190
     41 H12         2.2266   -9.4536   -0.3332 H         1 <0>         0.1715
     42 H13         2.4921   -0.6938   -4.3081 H         1 <0>         0.1252
     43 H14         4.7466    0.3142   -4.0991 H         1 <0>         0.1205
     44 H15         6.1400   -0.3486   -2.0248 H         1 <0>         0.1738
@<TRIPOS>BOND
     1    1    2 1
     2    1   33 1
     3    1   34 1
     4    1   35 1
     5    2    3 1
     6    3    4 2
     7    3    5 1
     8    5    6 1
     9    5   17 1
    10    5    7 1
    11    7    8 1
    12    7    9 1
    13    7   28 1
    14    9   10 1
    15    9   24 1
    16    9   26 1
    17   10   11 1
    18   10   12 1
    19   10   19 1
    20   12   13 2
    21   12   17 1
    22   13   14 1
    23   13   15 1
    24   15   16 1
    25   16   36 1
    26   16   37 1
    27   16   38 1
    28   17   18 2
    29   19   23 1
    30   19   20 2
    31   20   21 1
    32   20   39 1
    33   21   22 2
    34   21   40 1
    35   22   23 1
    36   22   41 1
    37   24   25 3
    38   26   27 3
    39   28   32 1
    40   28   29 2
    41   29   30 1
    42   29   42 1
    43   30   31 2
    44   30   43 1
    45   31   32 1
    46   31   44 1
@<TRIPOS>MOLECULE
ZINC65186331
   45    48     0     0     0
SMALL
USER_CHARGES

@<TRIPOS>ATOM
      1 C1         -0.0184    1.5028    0.0103 C.3       1 <0>        -0.0788
      2 C2          0.0021   -0.0041    0.0020 C.ar      1 <0>        -0.1582
      3 C3          0.0058   -0.6884   -1.1979 C.ar      1 <0>        -0.0579
      4 C4          0.0250   -2.0705   -1.2076 C.ar      1 <0>        -0.2517
      5 C5          0.0401   -2.7741   -0.0142 C.ar      1 <0>         0.1367
      6 C6          0.0360   -2.0941    1.1901 C.ar      1 <0>        -0.2930
      7 C7          0.0230   -0.7052    1.2009 C.ar      1 <0>         0.3061
      8 N1          0.0251   -0.0150    2.4152 N.2       1 <0>        -1.0747
      9 S1          0.0500   -0.8525    3.8436 S.o2      1 <0>         2.5472
     10 O1         -1.1748   -1.5727    3.8631 O.2       1 <0>        -1.0006
     11 O2          1.2941   -1.5391    3.8397 O.2       1 <0>        -1.0022
     12 C8          0.0448    0.4240    5.1325 C.3       1 <0>        -0.5845
     13 H1          0.9123    1.0760    5.0304 H         1 <0>         0.1902
     14 C9          0.0076   -0.2071    6.5120 C.2       1 <0>        -0.0761
     15 C10        -1.1388    0.2277    7.0628 C.2       1 <0>         0.0899
     16 N2         -1.8276    1.0455    6.2191 N.2       1 <0>        -0.4723
     17 C11        -1.2387    1.2286    5.0843 C.2       1 <0>         0.2014
     18 C12        -1.7291    2.0733    3.9366 C.3       1 <0>        -0.0869
     19 C13        -1.5967   -0.1378    8.4196 C.2       1 <0>         0.2516
     20 N3         -0.9684   -0.9154    9.2703 N.2       1 <0>        -0.2738
     21 N4         -1.6609   -1.0090   10.3507 N.2       1 <0>        -0.2827
     22 C14        -2.7495   -0.3007   10.2333 C.2       1 <0>         0.1867
     23 O3         -2.7347    0.2701    9.0165 O.3       1 <0>        -0.2026
     24 C15        -3.8270   -0.1462   11.2755 C.3       1 <0>        -0.0828
     25 C16        -3.5489   -0.7139   12.6688 C.3       1 <0>        -0.1442
     26 C17        -4.5452   -1.4140   11.7424 C.3       1 <0>        -0.1522
     27 C18         1.0327   -1.1228    7.1298 C.3       1 <0>        -0.1176
     28 F1          0.0585   -4.1249   -0.0269 F         1 <0>        -0.1568
     29 H2          1.0042    1.8801    0.0026 H         1 <0>         0.0490
     30 H3         -0.5455    1.8639   -0.8728 H         1 <0>         0.0399
     31 H4         -0.5286    1.8543    0.9071 H         1 <0>         0.0743
     32 H5         -0.0067   -0.1428   -2.1299 H         1 <0>         0.1156
     33 H6          0.0279   -2.6029   -2.1472 H         1 <0>         0.1139
     34 H7          0.0471   -2.6421    2.1206 H         1 <0>         0.1095
     35 H8         -2.3426    1.4638    3.2731 H         1 <0>         0.1012
     36 H9         -2.3238    2.9011    4.3229 H         1 <0>         0.0813
     37 H10        -0.8757    2.4659    3.3838 H         1 <0>         0.1017
     38 H11        -4.4135    0.7704   11.2130 H         1 <0>         0.1382
     39 H12        -2.5865   -1.1991   12.8316 H         1 <0>         0.1123
     40 H13        -3.9523   -0.1707   13.5233 H         1 <0>         0.1112
     41 H14        -5.6041   -1.3312   11.9874 H         1 <0>         0.1119
     42 H15        -4.2383   -2.3597   11.2958 H         1 <0>         0.1038
     43 H16         1.7746   -0.5296    7.6644 H         1 <0>         0.0914
     44 H17         0.5405   -1.8022    7.8257 H         1 <0>         0.0978
     45 H18         1.5244   -1.6991    6.3460 H         1 <0>         0.0869
@<TRIPOS>BOND
     1    1    2 1
     2    1   29 1
     3    1   30 1
     4    1   31 1
     5    2    7 ar
     6    2    3 ar
     7    3    4 ar
     8    3   32 1
     9    4    5 ar
    10    4   33 1
    11    5    6 ar
    12    5   28 1
    13    6    7 ar
    14    6   34 1
    15    7    8 1
    16    8    9 1
    17    9   10 2
    18    9   11 2
    19    9   12 1
    20   12   13 1
    21   12   17 1
    22   12   14 1
    23   14   15 2
    24   14   27 1
    25   15   16 1
    26   15   19 1
    27   16   17 2
    28   17   18 1
    29   18   35 1
    30   18   36 1
    31   18   37 1
    32   19   23 1
    33   19   20 2
    34   20   21 1
    35   21   22 2
    36   22   23 1
    37   22   24 1
    38   24   26 1
    39   24   25 1
    40   24   38 1
    41   25   26 1
    42   25   39 1
    43   25   40 1
    44   26   41 1
    45   26   42 1
    46   27   43 1
    47   27   44 1
    48   27   45 1
@<TRIPOS>MOLECULE
ZINC65193894
   42    45     0     0     0
SMALL
USER_CHARGES

@<TRIPOS>ATOM
      1 C1         -0.0184    1.5028    0.0103 C.3       1 <0>        -0.0936
      2 C2          0.0021   -0.0041    0.0020 C.2       1 <0>         0.2321
      3 N1          0.0083   -0.7709   -1.0379 N.2       1 <0>        -0.4914
      4 C3          0.0278   -2.0839   -0.7421 C.2       1 <0>         0.1376
      5 C4          0.0365   -2.3019    0.5908 C.2       1 <0>        -0.1505
      6 C5          0.0260   -0.9171    1.2123 C.3       1 <0>        -0.5573
      7 H1         -0.8677   -0.7756    1.8201 H         1 <0>         0.1865
      8 S1          1.5245   -0.6400    2.1962 S.o2      1 <0>         2.5503
      9 O1          1.4665   -1.3941    3.3992 O.2       1 <0>        -0.9749
     10 O2          2.6741   -0.6933    1.3627 O.2       1 <0>        -1.0048
     11 N2          1.4282    0.9399    2.6827 N.2       1 <0>        -1.0791
     12 C6          2.4415    1.4912    3.4733 C.ar      1 <0>         0.2673
     13 C7          3.5316    0.7169    3.8463 C.ar      1 <0>        -0.2316
     14 C8          4.5318    1.2647    4.6280 C.ar      1 <0>         0.0174
     15 C9          4.4474    2.5835    5.0388 C.ar      1 <0>        -0.1898
     16 C10         3.3631    3.3579    4.6692 C.ar      1 <0>        -0.1035
     17 C11         2.3621    2.8179    3.8827 C.ar      1 <0>         0.0351
     18 F1          1.3058    3.5767    3.5168 F         1 <0>        -0.1407
     19 Cl1         5.8950    0.2968    5.0953 Cl        1 <0>        -0.0977
     20 C12         0.0573   -3.5917    1.2845 C.2       1 <0>         0.2256
     21 N3          0.0592   -3.7785    2.5881 N.2       1 <0>        -0.2411
     22 N4          0.0796   -5.0411    2.8344 N.2       1 <0>        -0.2743
     23 C13         0.0914   -5.7055    1.7119 C.2       1 <0>         0.1778
     24 O3          0.0723   -4.8118    0.7074 O.3       1 <0>        -0.2148
     25 C14         0.1160   -7.2053    1.5669 C.3       1 <0>        -0.0808
     26 C15        -0.0756   -8.0408    2.8343 C.3       1 <0>        -0.1446
     27 C16         1.3029   -7.9546    2.1759 C.3       1 <0>        -0.1539
     28 C17         0.0382   -3.1806   -1.7756 C.3       1 <0>        -0.0977
     29 H2          1.0042    1.8801    0.0026 H         1 <0>         0.1063
     30 H3         -0.5455    1.8639   -0.8728 H         1 <0>         0.0860
     31 H4         -0.5286    1.8543    0.9071 H         1 <0>         0.1049
     32 H5          3.5982   -0.3125    3.5266 H         1 <0>         0.1176
     33 H6          5.2300    3.0087    5.6496 H         1 <0>         0.1237
     34 H7          3.3000    4.3867    4.9917 H         1 <0>         0.1286
     35 H8         -0.3025   -7.5949    0.6389 H         1 <0>         0.1370
     36 H9         -0.2194   -7.5057    3.7729 H         1 <0>         0.1136
     37 H10        -0.6203   -8.9802    2.7402 H         1 <0>         0.1109
     38 H11         1.6650   -8.8372    1.6488 H         1 <0>         0.1113
     39 H12         2.0659   -7.3627    2.6815 H         1 <0>         0.1048
     40 H13         0.0280   -2.7404   -2.7727 H         1 <0>         0.0850
     41 H14         0.9370   -3.7854   -1.6546 H         1 <0>         0.0820
     42 H15        -0.8428   -3.8094   -1.6470 H         1 <0>         0.0806
@<TRIPOS>BOND
     1    1    2 1
     2    1   29 1
     3    1   30 1
     4    1   31 1
     5    2    6 1
     6    2    3 2
     7    3    4 1
     8    4    5 2
     9    4   28 1
    10    5    6 1
    11    5   20 1
    12    6    7 1
    13    6    8 1
    14    8    9 2
    15    8   10 2
    16    8   11 1
    17   11   12 1
    18   12   17 ar
    19   12   13 ar
    20   13   14 ar
    21   13   32 1
    22   14   15 ar
    23   14   19 1
    24   15   16 ar
    25   15   33 1
    26   16   17 ar
    27   16   34 1
    28   17   18 1
    29   20   24 1
    30   20   21 2
    31   21   22 1
    32   22   23 2
    33   23   24 1
    34   23   25 1
    35   25   27 1
    36   25   26 1
    37   25   35 1
    38   26   27 1
    39   26   36 1
    40   26   37 1
    41   27   38 1
    42   27   39 1
    43   28   40 1
    44   28   41 1
    45   28   42 1
@<TRIPOS>MOLECULE
ZINC08856801
   54    57     0     0     0
SMALL
USER_CHARGES
2-[[4-(2-chlorophenyl)-3-cyano-5-oxo-4,6,7,8-tetrahydro-1H-quinolin-2-yl]sulfanyl]-N-(o-tolyl)acetamide
@<TRIPOS>ATOM
      1 C1         -1.1149   -0.4980    1.2454 C.3       1 <0>        -0.1169
      2 C2          0.0869    0.1285    0.5865 C.ar      1 <0>        -0.1075
      3 C3          1.2918   -0.5464    0.5611 C.ar      1 <0>        -0.1039
      4 C4          2.3946    0.0273   -0.0440 C.ar      1 <0>        -0.1254
      5 C5          2.2953    1.2783   -0.6256 C.ar      1 <0>        -0.1074
      6 C6          1.0939    1.9585   -0.6028 C.ar      1 <0>        -0.1155
      7 C7         -0.0160    1.3847    0.0039 C.ar      1 <0>         0.1363
      8 N1         -1.2366    2.0686    0.0228 N.am      1 <0>        -0.6615
      9 C8         -1.2549    3.4118    0.1324 C.2       1 <0>         0.5289
     10 O1         -0.2140    4.0345    0.1321 O.2       1 <0>        -0.5025
     11 C9         -2.5685    4.1400    0.2550 C.3       1 <0>        -0.1520
     12 S1         -2.2623    5.9192    0.3839 S.3       1 <0>         0.0818
     13 C10        -3.9188    6.5063    0.5117 C.2       1 <0>         0.1902
     14 C11        -4.1591    7.8390    0.6367 C.3       1 <0>        -0.0097
     15 C12        -5.5602    8.3660    0.7439 C.3       1 <0>         0.0516
     16 H1         -5.5891    9.1496    1.5010 H         1 <0>         0.1219
     17 C13        -6.5243    7.2724    1.1286 C.2       1 <0>        -0.2659
     18 C14        -6.1952    5.9738    0.9745 C.2       1 <0>         0.1865
     19 N2         -4.9670    5.6159    0.4849 N.2       1 <0>        -0.5335
     20 C15        -7.1624    4.8764    1.3519 C.3       1 <0>        -0.0759
     21 C16        -8.0511    5.3453    2.5051 C.3       1 <0>        -0.1164
     22 C17        -8.7874    6.6155    2.0660 C.3       1 <0>        -0.1562
     23 C18        -7.7763    7.6469    1.6467 C.2       1 <0>         0.3929
     24 O2         -8.0466    8.8264    1.7582 O.2       1 <0>        -0.4500
     25 C19        -5.9753    8.9463   -0.5836 C.ar      1 <0>        -0.0754
     26 C20        -6.0018    8.1456   -1.7101 C.ar      1 <0>        -0.0922
     27 C21        -6.3819    8.6778   -2.9278 C.ar      1 <0>        -0.1152
     28 C22        -6.7368   10.0109   -3.0197 C.ar      1 <0>        -0.1013
     29 C23        -6.7110   10.8123   -1.8942 C.ar      1 <0>        -0.1111
     30 C24        -6.3352   10.2789   -0.6739 C.ar      1 <0>        -0.0140
     31 Cl1        -6.3096   11.2832    0.7419 Cl        1 <0>        -0.0543
     32 C25        -3.0579    8.7539    0.6655 C.1       1 <0>         0.2062
     33 N3         -2.1842    9.4797    0.6886 N.1       1 <0>        -0.3568
     34 H2         -1.6671   -1.0847    0.5114 H         1 <0>         0.0729
     35 H3         -0.7870   -1.1473    2.0572 H         1 <0>         0.0732
     36 H4         -1.7599    0.2849    1.6444 H         1 <0>         0.0633
     37 H5          1.3725   -1.5235    1.0142 H         1 <0>         0.1274
     38 H6          3.3355   -0.5025   -0.0628 H         1 <0>         0.1250
     39 H7          3.1585    1.7236   -1.0978 H         1 <0>         0.1268
     40 H8          1.0171    2.9354   -1.0568 H         1 <0>         0.1397
     41 H9         -2.0696    1.5759   -0.0428 H         1 <0>         0.4146
     42 H10        -3.1788    3.9392   -0.6255 H         1 <0>         0.1400
     43 H11        -3.0928    3.7959    1.1465 H         1 <0>         0.1367
     44 H12        -3.8063    7.6417    1.5513 H         1 <0>         0.1370
     45 H13        -6.6072    3.9896    1.6576 H         1 <0>         0.0947
     46 H14        -7.7856    4.6349    0.4908 H         1 <0>         0.0972
     47 H15        -7.4343    5.5624    3.3770 H         1 <0>         0.0731
     48 H16        -8.7752    4.5680    2.7493 H         1 <0>         0.0880
     49 H17        -9.3314    6.9658    2.8284 H         1 <0>         0.0877
     50 H18        -9.4445    6.3864    1.2269 H         1 <0>         0.1014
     51 H19        -5.7251    7.1041   -1.6388 H         1 <0>         0.1260
     52 H20        -6.4022    8.0519   -3.8077 H         1 <0>         0.1305
     53 H21        -7.0337   10.4262   -3.9714 H         1 <0>         0.1338
     54 H22        -6.9886   11.8535   -1.9660 H         1 <0>         0.1358
@<TRIPOS>BOND
     1    1    2 1
     2    1   34 1
     3    1   35 1
     4    1   36 1
     5    2    7 ar
     6    2    3 ar
     7    3    4 ar
     8    3   37 1
     9    4    5 ar
    10    4   38 1
    11    5    6 ar
    12    5   39 1
    13    6    7 ar
    14    6   40 1
    15    7    8 1
    16    8    9 am
    17    8   41 1
    18    9   10 2
    19    9   11 1
    20   11   12 1
    21   11   42 1
    22   11   43 1
    23   12   13 1
    24   13   19 2
    25   13   14 1
    26   14   15 1
    27   14   32 1
    28   14   44 1
    29   15   16 1
    30   15   17 1
    31   15   25 1
    32   17   23 1
    33   17   18 2
    34   18   20 1
    35   18   19 1
    36   20   21 1
    37   20   45 1
    38   20   46 1
    39   21   22 1
    40   21   47 1
    41   21   48 1
    42   22   23 1
    43   22   49 1
    44   22   50 1
    45   23   24 2
    46   25   30 ar
    47   25   26 ar
    48   26   27 ar
    49   26   51 1
    50   27   28 ar
    51   27   52 1
    52   28   29 ar
    53   28   53 1
    54   29   30 ar
    55   29   54 1
    56   30   31 1
    57   32   33 3
@<TRIPOS>MOLECULE
ZINC14187753
   61    65     0     0     0
SMALL
USER_CHARGES
N-(1-adamantyl)-1-[2-(trifluoromethyl)phenyl]sulfonyl-piperidine-4-carboxamide
@<TRIPOS>ATOM
      1 C1          0.2084   -1.3087    4.3171 C.ar      1 <0>        -0.0674
      2 C2          0.5921   -0.0248    3.9765 C.ar      1 <0>        -0.1023
      3 C3          0.6941    0.3360    2.6462 C.ar      1 <0>        -0.0376
      4 C4          0.4023   -0.5839    1.6561 C.ar      1 <0>        -0.6313
      5 C5          0.0187   -1.8673    1.9966 C.ar      1 <0>        -0.0889
      6 C6         -0.0782   -2.2298    3.3273 C.ar      1 <0>        -0.0840
      7 C7         -0.2934   -2.8718    0.9174 C.3       1 <0>         0.4754
      8 F1         -0.5134   -4.1259    1.4970 F         1 <0>        -0.1665
      9 F2         -1.4406   -2.4705    0.2245 F         1 <0>        -0.1445
     10 F3          0.7842   -2.9513    0.0287 F         1 <0>        -0.1660
     11 S1          0.5263   -0.1221   -0.0398 S.o2      1 <0>         2.6696
     12 O1         -0.7145   -0.4596   -0.6444 O.2       1 <0>        -0.9307
     13 O2          1.7665   -0.6321   -0.5099 O.2       1 <0>        -0.9309
     14 N1          0.6439    1.5290   -0.0903 N.pl3     1 <0>        -0.9953
     15 C8         -0.5620    2.3671   -0.0448 C.3       1 <0>         0.1193
     16 C9         -0.4062    3.3859    1.0944 C.3       1 <0>        -0.1313
     17 C10         0.8948    4.1674    0.8977 C.3       1 <0>        -0.1084
     18 C11         2.0830    3.2041    0.9476 C.3       1 <0>        -0.1182
     19 C12         1.9558    2.1834   -0.1876 C.3       1 <0>         0.1118
     20 C13         1.0343    5.1938    1.9922 C.2       1 <0>         0.5197
     21 O3          1.9897    5.1585    2.7385 O.2       1 <0>        -0.5293
     22 N2          0.0974    6.1511    2.1417 N.am      1 <0>        -0.7253
     23 C14         0.2330    7.1489    3.2058 C.3       1 <0>         0.1838
     24 C15         1.5328    7.9315    3.0084 C.3       1 <0>        -0.1212
     25 C16         1.6744    8.9736    4.1196 C.3       1 <0>        -0.0828
     26 C17         0.4867    9.9368    4.0699 C.3       1 <0>        -0.1117
     27 C18        -0.8131    9.1542    4.2673 C.3       1 <0>        -0.0806
     28 C19        -0.9548    8.1121    3.1561 C.3       1 <0>        -0.1150
     29 C20        -0.7836    8.4506    5.6256 C.3       1 <0>        -0.1115
     30 C21         0.4042    7.4874    5.6753 C.3       1 <0>        -0.0827
     31 C22         1.7040    8.2700    5.4779 C.3       1 <0>        -0.1094
     32 C23         0.2626    6.4453    4.5640 C.3       1 <0>        -0.1203
     33 H1          0.1331   -1.5919    5.3565 H         1 <0>         0.1468
     34 H2          0.8165    0.6948    4.7499 H         1 <0>         0.1442
     35 H3          0.9982    1.3376    2.3801 H         1 <0>         0.1484
     36 H4         -0.3776   -3.2328    3.5933 H         1 <0>         0.1509
     37 H5         -0.6791    2.8907   -0.9936 H         1 <0>         0.0870
     38 H6         -1.4352    1.7413    0.1396 H         1 <0>         0.0964
     39 H7         -0.3761    2.8641    2.0509 H         1 <0>         0.0745
     40 H8         -1.2503    4.0755    1.0821 H         1 <0>         0.0851
     41 H9          0.8744    4.6690   -0.0698 H         1 <0>         0.1046
     42 H10         2.0897    2.6840    1.9055 H         1 <0>         0.0746
     43 H11         3.0107    3.7644    0.8308 H         1 <0>         0.0917
     44 H12         2.7444    1.4364   -0.0974 H         1 <0>         0.1021
     45 H13         2.0399    2.6924   -1.1478 H         1 <0>         0.0852
     46 H14        -0.6667    6.1793    1.5448 H         1 <0>         0.3988
     47 H15         2.3790    7.2454    3.0438 H         1 <0>         0.0853
     48 H16         1.5117    8.4328    2.0407 H         1 <0>         0.0588
     49 H17         2.6004    9.5312    3.9790 H         1 <0>         0.0720
     50 H18         0.4656   10.4381    3.1023 H         1 <0>         0.0624
     51 H19         0.5875   10.6792    4.8616 H         1 <0>         0.0649
     52 H20        -1.6593    9.8404    4.2319 H         1 <0>         0.0749
     53 H21        -0.9758    8.6134    2.1884 H         1 <0>         0.0682
     54 H22        -1.8808    7.5545    3.2967 H         1 <0>         0.0680
     55 H23        -0.6827    9.1930    6.4173 H         1 <0>         0.0649
     56 H24        -1.7096    7.8930    5.7662 H         1 <0>         0.0621
     57 H25         0.4253    6.9861    6.6429 H         1 <0>         0.0715
     58 H26         2.5502    7.5839    5.5133 H         1 <0>         0.0645
     59 H27         1.8049    9.0124    6.2695 H         1 <0>         0.0626
     60 H28        -0.6634    5.8878    4.7047 H         1 <0>         0.0582
     61 H29         1.1088    5.7591    4.5994 H         1 <0>         0.0848
@<TRIPOS>BOND
     1    1    6 ar
     2    1    2 ar
     3    1   33 1
     4    2    3 ar
     5    2   34 1
     6    3    4 ar
     7    3   35 1
     8    4    5 ar
     9    4   11 1
    10    5    6 ar
    11    5    7 1
    12    6   36 1
    13    7    8 1
    14    7    9 1
    15    7   10 1
    16   11   12 2
    17   11   13 2
    18   11   14 1
    19   14   19 1
    20   14   15 1
    21   15   16 1
    22   15   37 1
    23   15   38 1
    24   16   17 1
    25   16   39 1
    26   16   40 1
    27   17   18 1
    28   17   20 1
    29   17   41 1
    30   18   19 1
    31   18   42 1
    32   18   43 1
    33   19   44 1
    34   19   45 1
    35   20   21 2
    36   20   22 am
    37   22   23 1
    38   22   46 1
    39   23   28 1
    40   23   32 1
    41   23   24 1
    42   24   25 1
    43   24   47 1
    44   24   48 1
    45   25   31 1
    46   25   26 1
    47   25   49 1
    48   26   27 1
    49   26   50 1
    50   26   51 1
    51   27   28 1
    52   27   29 1
    53   27   52 1
    54   28   53 1
    55   28   54 1
    56   29   30 1
    57   29   55 1
    58   29   56 1
    59   30   31 1
    60   30   32 1
    61   30   57 1
    62   31   58 1
    63   31   59 1
    64   32   60 1
    65   32   61 1
@<TRIPOS>MOLECULE
ZINC21267206
   63    67     0     0     0
SMALL
USER_CHARGES
(4S,7R)-1-benzyl-2,5-dioxo-7-phenyl-N-(p-tolyl)-4,6,7,8-tetrahydro-3H-quinoline-4-carboxamide
@<TRIPOS>ATOM
      1 C1         -2.0483   -0.2368   -7.9363 C.3       1 <0>        -0.1155
      2 C2         -2.1051    0.3472   -6.5482 C.ar      1 <0>        -0.1011
      3 C3         -2.9205   -0.2277   -5.5907 C.ar      1 <0>        -0.1028
      4 C4         -2.9741    0.3046   -4.3174 C.ar      1 <0>        -0.1409
      5 C5         -2.2083    1.4186   -3.9993 C.ar      1 <0>         0.1453
      6 C6         -1.3948    1.9970   -4.9648 C.ar      1 <0>        -0.1154
      7 C7         -1.3414    1.4565   -6.2346 C.ar      1 <0>        -0.1035
      8 N1         -2.2607    1.9605   -2.7103 N.am      1 <0>        -0.6865
      9 C8         -1.1499    2.4817   -2.1527 C.2       1 <0>         0.5181
     10 O1         -0.1254    2.5562   -2.7976 O.2       1 <0>        -0.5048
     11 C9         -1.1808    2.9719   -0.7280 C.3       1 <0>        -0.0489
     12 H1         -1.9210    3.7807   -0.6384 H         1 <0>         0.1325
     13 C10        -1.5537    1.8146    0.1942 C.3       1 <0>        -0.1369
     14 C11        -0.3900    0.8604    0.2885 C.2       1 <0>         0.5209
     15 O2         -0.5902   -0.3326    0.3703 O.2       1 <0>        -0.4956
     16 N2          0.8679    1.3300    0.2766 N.am      1 <0>        -0.5345
     17 C12         1.1325    2.6647    0.1088 C.2       1 <0>         0.2476
     18 C13         0.1817    3.5043   -0.3491 C.2       1 <0>        -0.2699
     19 C14         0.4259    4.8815   -0.4854 C.2       1 <0>         0.4138
     20 O3         -0.4578    5.6065   -0.8970 O.2       1 <0>        -0.4721
     21 C15         1.7631    5.4736   -0.1308 C.3       1 <0>        -0.1595
     22 C16         2.4177    4.6137    0.9551 C.3       1 <0>        -0.0345
     23 H2          1.8297    4.6539    1.8839 H         1 <0>         0.0944
     24 C17         2.5128    3.1735    0.4463 C.3       1 <0>        -0.1006
     25 C18         3.7993    5.1378    1.2511 C.ar      1 <0>        -0.0837
     26 C19         4.7513    5.1810    0.2497 C.ar      1 <0>        -0.1140
     27 C20         6.0173    5.6659    0.5201 C.ar      1 <0>        -0.1158
     28 C21         6.3341    6.0987    1.7942 C.ar      1 <0>        -0.1183
     29 C22         5.3835    6.0511    2.7967 C.ar      1 <0>        -0.1167
     30 C23         4.1162    5.5702    2.5252 C.ar      1 <0>        -0.1108
     31 C24         1.9828    0.3949    0.4462 C.3       1 <0>         0.1294
     32 C25         2.4216   -0.1136   -0.9028 C.ar      1 <0>        -0.1155
     33 C26         1.8517   -1.2579   -1.4289 C.ar      1 <0>        -0.0912
     34 C27         2.2504   -1.7215   -2.6687 C.ar      1 <0>        -0.1205
     35 C28         3.2271   -1.0471   -3.3774 C.ar      1 <0>        -0.1069
     36 C29         3.8008    0.0942   -2.8490 C.ar      1 <0>        -0.1193
     37 C30         3.3980    0.5610   -1.6117 C.ar      1 <0>        -0.0993
     38 H3         -2.7179   -1.1075   -7.9954 H         1 <0>         0.0647
     39 H4         -1.0181   -0.5506   -8.1602 H         1 <0>         0.0683
     40 H5         -2.3675    0.5215   -8.6664 H         1 <0>         0.0691
     41 H6         -3.5158   -1.0940   -5.8387 H         1 <0>         0.1246
     42 H7         -3.6106   -0.1453   -3.5698 H         1 <0>         0.1241
     43 H8         -0.8012    2.8658   -4.7216 H         1 <0>         0.1352
     44 H9         -0.7055    1.9032   -6.9847 H         1 <0>         0.1229
     45 H10        -3.2085    1.9611   -2.1520 H         1 <0>         0.4319
     46 H11        -1.7926    2.2051    1.1944 H         1 <0>         0.1232
     47 H12        -2.4299    1.2889   -0.2131 H         1 <0>         0.1159
     48 H13         2.4040    5.4933   -1.0246 H         1 <0>         0.1058
     49 H14         1.6228    6.4988    0.2425 H         1 <0>         0.1029
     50 H15         2.9570    2.5383    1.2268 H         1 <0>         0.0999
     51 H16         3.1446    3.1444   -0.4537 H         1 <0>         0.1081
     52 H17         4.5050    4.8390   -0.7446 H         1 <0>         0.1221
     53 H18         6.7599    5.7034   -0.2632 H         1 <0>         0.1232
     54 H19         7.3242    6.4744    2.0063 H         1 <0>         0.1223
     55 H20         5.6310    6.3892    3.7921 H         1 <0>         0.1234
     56 H21         3.3736    5.5327    3.3085 H         1 <0>         0.1233
     57 H22         2.8228    0.9105    0.9347 H         1 <0>         0.1042
     58 H23         1.6597   -0.4517    1.0698 H         1 <0>         0.1069
     59 H24         1.0921   -1.7875   -0.8731 H         1 <0>         0.1259
     60 H25         1.8020   -2.6130   -3.0817 H         1 <0>         0.1218
     61 H26         3.5418   -1.4118   -4.3440 H         1 <0>         0.1220
     62 H27         4.5638    0.6211   -3.4026 H         1 <0>         0.1230
     63 H28         3.8464    1.4525   -1.1987 H         1 <0>         0.1187
@<TRIPOS>BOND
     1    1    2 1
     2    1   38 1
     3    1   39 1
     4    1   40 1
     5    2    7 ar
     6    2    3 ar
     7    3    4 ar
     8    3   41 1
     9    4    5 ar
    10    4   42 1
    11    5    6 ar
    12    5    8 1
    13    6    7 ar
    14    6   43 1
    15    7   44 1
    16    8    9 am
    17    8   45 1
    18    9   10 2
    19    9   11 1
    20   11   12 1
    21   11   18 1
    22   11   13 1
    23   13   14 1
    24   13   46 1
    25   13   47 1
    26   14   15 2
    27   14   16 am
    28   16   17 1
    29   16   31 1
    30   17   24 1
    31   17   18 2
    32   18   19 1
    33   19   20 2
    34   19   21 1
    35   21   22 1
    36   21   48 1
    37   21   49 1
    38   22   23 1
    39   22   24 1
    40   22   25 1
    41   24   50 1
    42   24   51 1
    43   25   30 ar
    44   25   26 ar
    45   26   27 ar
    46   26   52 1
    47   27   28 ar
    48   27   53 1
    49   28   29 ar
    50   28   54 1
    51   29   30 ar
    52   29   55 1
    53   30   56 1
    54   31   32 1
    55   31   57 1
    56   31   58 1
    57   32   37 ar
    58   32   33 ar
    59   33   34 ar
    60   33   59 1
    61   34   35 ar
    62   34   60 1
    63   35   36 ar
    64   35   61 1
    65   36   37 ar
    66   36   62 1
    67   37   63 1
@<TRIPOS>MOLECULE
ZINC35910252
   49    52     0     0     0
SMALL
USER_CHARGES

@<TRIPOS>ATOM
      1 C1         -2.2970   -8.3202    4.4168 C.3       1 <0>        -0.1273
      2 C2         -1.7254   -7.4535    3.3244 C.ar      1 <0>        -0.0226
      3 C3         -1.2554   -6.1878    3.6210 C.ar      1 <0>        -0.1405
      4 C4         -0.7311   -5.3928    2.6190 C.ar      1 <0>        -0.0099
      5 C5         -0.6764   -5.8637    1.3205 C.ar      1 <0>        -0.6838
      6 C6         -1.1456   -7.1297    1.0241 C.ar      1 <0>        -0.0139
      7 C7         -1.6659   -7.9264    2.0268 C.ar      1 <0>        -0.1424
      8 S1         -0.0092   -4.8499    0.0431 S.o2      1 <0>         2.6900
      9 O1         -0.4883   -5.3777   -1.1862 O.2       1 <0>        -0.9486
     10 O2         -0.2360   -3.5026    0.4337 O.2       1 <0>        -0.9461
     11 N1          1.6316   -5.0740    0.0470 N.pl3     1 <0>        -1.0562
     12 C8          2.3803   -4.7335    1.1759 C.ar      1 <0>         0.1452
     13 C9          2.1643   -3.5186    1.8142 C.ar      1 <0>        -0.1347
     14 C10         2.9059   -3.1854    2.9303 C.ar      1 <0>        -0.0944
     15 C11         3.8631   -4.0593    3.4126 C.ar      1 <0>        -0.0861
     16 C12         4.0810   -5.2691    2.7795 C.ar      1 <0>        -0.0829
     17 C13         3.3384   -5.6113    1.6663 C.ar      1 <0>        -0.0986
     18 C14         5.1258   -6.2178    3.3081 C.3       1 <0>         0.2306
     19 H1          5.2626   -7.0621    2.6325 H         1 <0>         0.1225
     20 N2          6.4027   -5.5193    3.5488 N.am      1 <0>        -0.5638
     21 C15         7.0416   -5.7137    4.6952 C.2       1 <0>         0.5165
     22 O3          8.0959   -5.1613    4.9286 O.2       1 <0>        -0.4975
     23 C16         6.4040   -6.6537    5.7058 C.3       1 <0>        -0.0919
     24 S2          4.7001   -6.7919    5.0086 S.3       1 <0>        -0.2296
     25 C17         6.9345   -4.6613    2.5781 C.ar      1 <0>         0.1003
     26 C18         6.7172   -3.2931    2.6648 C.ar      1 <0>        -0.0700
     27 C19         7.2434   -2.4490    1.7062 C.ar      1 <0>        -0.1198
     28 C20         7.9860   -2.9648    0.6599 C.ar      1 <0>        -0.0779
     29 C21         8.2049   -4.3270    0.5688 C.ar      1 <0>        -0.1478
     30 C22         7.6863   -5.1774    1.5284 C.ar      1 <0>         0.1096
     31 F1          7.9047   -6.5078    1.4427 F         1 <0>        -0.1327
     32 H2         -1.4999   -8.9146    4.8635 H         1 <0>         0.0813
     33 H3         -2.7515   -7.6894    5.1807 H         1 <0>         0.0743
     34 H4         -3.0529   -8.9834    3.9963 H         1 <0>         0.0740
     35 H5         -1.2982   -5.8199    4.6355 H         1 <0>         0.1341
     36 H6         -0.3646   -4.4037    2.8507 H         1 <0>         0.1383
     37 H7         -1.1031   -7.4975    0.0095 H         1 <0>         0.1416
     38 H8         -2.0291   -8.9169    1.7959 H         1 <0>         0.1343
     39 H9          2.0727   -5.4416   -0.7348 H         1 <0>         0.4289
     40 H10         1.4174   -2.8353    1.4376 H         1 <0>         0.1609
     41 H11         2.7384   -2.2411    3.4269 H         1 <0>         0.1378
     42 H12         4.4420   -3.7961    4.2855 H         1 <0>         0.1275
     43 H13         3.5057   -6.5585    1.1751 H         1 <0>         0.1332
     44 H14         6.9053   -7.6215    5.7152 H         1 <0>         0.1366
     45 H15         6.3882   -6.2104    6.7014 H         1 <0>         0.1462
     46 H16         6.1368   -2.8887    3.4810 H         1 <0>         0.1354
     47 H17         7.0742   -1.3844    1.7738 H         1 <0>         0.1381
     48 H18         8.3957   -2.3021   -0.0880 H         1 <0>         0.1394
     49 H19         8.7847   -4.7267   -0.2499 H         1 <0>         0.1425
@<TRIPOS>BOND
     1    1    2 1
     2    1   32 1
     3    1   33 1
     4    1   34 1
     5    2    7 ar
     6    2    3 ar
     7    3    4 ar
     8    3   35 1
     9    4    5 ar
    10    4   36 1
    11    5    6 ar
    12    5    8 1
    13    6    7 ar
    14    6   37 1
    15    7   38 1
    16    8    9 2
    17    8   10 2
    18    8   11 1
    19   11   12 1
    20   11   39 1
    21   12   17 ar
    22   12   13 ar
    23   13   14 ar
    24   13   40 1
    25   14   15 ar
    26   14   41 1
    27   15   16 ar
    28   15   42 1
    29   16   17 ar
    30   16   18 1
    31   17   43 1
    32   18   19 1
    33   18   24 1
    34   18   20 1
    35   20   21 am
    36   20   25 1
    37   21   22 2
    38   21   23 1
    39   23   24 1
    40   23   44 1
    41   23   45 1
    42   25   30 ar
    43   25   26 ar
    44   26   27 ar
    45   26   46 1
    46   27   28 ar
    47   27   47 1
    48   28   29 ar
    49   28   48 1
    50   29   30 ar
    51   29   49 1
    52   30   31 1
@<TRIPOS>MOLECULE
ZINC45870280
   64    69     0     0     0
SMALL
USER_CHARGES

@<TRIPOS>ATOM
      1 C1         -0.0184    1.5028    0.0103 C.3       1 <0>        -0.0764
      2 C2          0.0021   -0.0041    0.0020 C.2       1 <0>         0.1164
      3 C3          0.0078   -0.8031   -1.1312 C.2       1 <0>        -0.2665
      4 C4          0.0282   -2.1270   -0.7127 C.2       1 <0>         0.2644
      5 N1          0.0412   -3.2886   -1.3802 N.2       1 <0>        -0.4702
      6 C5          0.0601   -4.4327   -0.7380 C.2       1 <0>         0.2176
      7 C6          0.0666   -4.4565    0.6642 C.2       1 <0>        -0.1971
      8 C7          0.0536   -3.2880    1.3506 C.2       1 <0>         0.2022
      9 N2          0.0345   -2.1112    0.6588 N.pl3     1 <0>        -0.3126
     10 N3          0.0231   -0.7729    1.0675 N.2       1 <0>        -0.3144
     11 C8          0.0598   -3.2877    2.8576 C.3       1 <0>        -0.1232
     12 C9          0.0873   -5.7706    1.4016 C.3       1 <0>        -0.0481
     13 C10        -1.3422   -6.2960    1.5479 C.3       1 <0>        -0.1408
     14 C11        -1.3215   -7.6101    2.2853 C.2       1 <0>         0.5135
     15 O1         -0.2671   -8.0801    2.6573 O.2       1 <0>        -0.5339
     16 N4         -2.4746   -8.2629    2.5315 N.am      1 <0>        -0.7313
     17 C12        -2.4544   -9.5404    3.2483 C.3       1 <0>         0.1247
     18 C13        -3.8839  -10.0657    3.3946 C.3       1 <0>        -0.0886
     19 H1         -4.4966   -9.3031    3.8754 H         1 <0>         0.0846
     20 C14        -4.4515  -10.3622    2.0088 C.3       1 <0>        -0.1099
     21 C15        -4.8538  -11.8468    1.8721 C.3       1 <0>        -0.0069
     22 C16        -3.6024  -12.6371    2.2218 C.ar      1 <0>        -0.0793
     23 C17        -2.9986  -13.5452    1.3997 C.ar      1 <0>        -0.1064
     24 C18        -1.8567  -14.1972    1.8473 C.ar      1 <0>        -0.1189
     25 C19        -1.3438  -13.9294    3.1029 C.ar      1 <0>        -0.1188
     26 C20        -1.9633  -13.0046    3.9337 C.ar      1 <0>        -0.1041
     27 C21        -3.0853  -12.3669    3.4869 C.ar      1 <0>        -0.0810
     28 C22        -3.8689  -11.3326    4.2774 C.3       1 <0>         0.0018
     29 C23        -5.3030  -11.8389    4.2800 C.ar      1 <0>        -0.0799
     30 C24        -5.8206  -12.1091    3.0164 C.ar      1 <0>        -0.0790
     31 C25        -7.0972  -12.5710    2.8683 C.ar      1 <0>        -0.1067
     32 C26        -7.8739  -12.7664    4.0032 C.ar      1 <0>        -0.1190
     33 C27        -7.3606  -12.4969    5.2582 C.ar      1 <0>        -0.1206
     34 C28        -6.0604  -12.0298    5.4002 C.ar      1 <0>        -0.1045
     35 C29         0.0744   -5.7266   -1.5105 C.3       1 <0>        -0.1112
     36 H2          1.0042    1.8801    0.0026 H         1 <0>         0.0846
     37 H3         -0.5455    1.8639   -0.8728 H         1 <0>         0.0850
     38 H4         -0.5286    1.8543    0.9071 H         1 <0>         0.0780
     39 H5         -0.0024   -0.4581   -2.1546 H         1 <0>         0.1615
     40 H6          1.0888   -3.2738    3.2168 H         1 <0>         0.0956
     41 H7         -0.4645   -2.4047    3.2229 H         1 <0>         0.0893
     42 H8         -0.4405   -4.1845    3.2232 H         1 <0>         0.0955
     43 H9          0.6840   -6.4916    0.8427 H         1 <0>         0.0949
     44 H10         0.5241   -5.6259    2.3898 H         1 <0>         0.0898
     45 H11        -1.9388   -5.5751    2.1068 H         1 <0>         0.0951
     46 H12        -1.7790   -6.4407    0.5598 H         1 <0>         0.0980
     47 H13        -3.3178   -7.8870    2.2340 H         1 <0>         0.4009
     48 H14        -1.8578  -10.2613    2.6894 H         1 <0>         0.0744
     49 H15        -2.0176   -9.3957    4.2365 H         1 <0>         0.0693
     50 H16        -5.3292   -9.7379    1.8417 H         1 <0>         0.0722
     51 H17        -3.6986  -10.1259    1.2569 H         1 <0>         0.0753
     52 H18        -5.2709  -12.0892    0.8947 H         1 <0>         0.1046
     53 H19        -3.4019  -13.7529    0.4196 H         1 <0>         0.1241
     54 H20        -1.3665  -14.9185    1.2103 H         1 <0>         0.1221
     55 H21        -0.4556  -14.4430    3.4402 H         1 <0>         0.1225
     56 H22        -1.5650  -12.7937    4.9151 H         1 <0>         0.1250
     57 H23        -3.4606  -11.1563    5.2726 H         1 <0>         0.1064
     58 H24        -7.4958  -12.7802    1.8866 H         1 <0>         0.1247
     59 H25        -8.8857  -13.1310    3.9045 H         1 <0>         0.1223
     60 H26        -7.9741  -12.6523    6.1334 H         1 <0>         0.1226
     61 H27        -5.6562  -11.8204    6.3795 H         1 <0>         0.1249
     62 H28         0.0664   -5.5119   -2.5791 H         1 <0>         0.0865
     63 H29         0.9735   -6.2895   -1.2597 H         1 <0>         0.0916
     64 H30        -0.8063   -6.3143   -1.2513 H         1 <0>         0.0875
@<TRIPOS>BOND
     1    1    2 1
     2    1   36 1
     3    1   37 1
     4    1   38 1
     5    2   10 2
     6    2    3 1
     7    3    4 2
     8    3   39 1
     9    4    9 1
    10    4    5 1
    11    5    6 2
    12    6    7 1
    13    6   35 1
    14    7    8 2
    15    7   12 1
    16    8    9 1
    17    8   11 1
    18    9   10 1
    19   11   40 1
    20   11   41 1
    21   11   42 1
    22   12   13 1
    23   12   43 1
    24   12   44 1
    25   13   14 1
    26   13   45 1
    27   13   46 1
    28   14   15 2
    29   14   16 am
    30   16   17 1
    31   16   47 1
    32   17   18 1
    33   17   48 1
    34   17   49 1
    35   18   19 1
    36   18   28 1
    37   18   20 1
    38   20   21 1
    39   20   50 1
    40   20   51 1
    41   21   30 1
    42   21   22 1
    43   21   52 1
    44   22   27 ar
    45   22   23 ar
    46   23   24 ar
    47   23   53 1
    48   24   25 ar
    49   24   54 1
    50   25   26 ar
    51   25   55 1
    52   26   27 ar
    53   26   56 1
    54   27   28 1
    55   28   29 1
    56   28   57 1
    57   29   34 ar
    58   29   30 ar
    59   30   31 ar
    60   31   32 ar
    61   31   58 1
    62   32   33 ar
    63   32   59 1
    64   33   34 ar
    65   33   60 1
    66   34   61 1
    67   35   62 1
    68   35   63 1
    69   35   64 1
@<TRIPOS>MOLECULE
ZINC08634964
   51    53     0     0     0
SMALL
USER_CHARGES
2-[4-(3-bromophenyl)-4-methyl-2,5-dioxo-imidazolidin-1-yl]-N-[(4-fluorophenyl)carbamoylmethyl]-N-methyl-acetamide
@<TRIPOS>ATOM
      1 C1          2.9222    4.2276   -1.4337 C.3       1 <0>        -0.1453
      2 C2          2.4847    3.9199   -0.0002 C.3       1 <0>         0.1717
      3 C3          2.3430    5.1973    0.8035 C.2       1 <0>         0.5397
      4 O1          1.5870    6.1196    0.5852 O.2       1 <0>        -0.4476
      5 N1          3.2327    5.0948    1.8104 N.am      1 <0>        -0.5610
      6 C4          3.9099    3.9422    1.7552 C.2       1 <0>         0.7131
      7 O2          4.7666    3.6230    2.5561 O.2       1 <0>        -0.5343
      8 N2          3.5367    3.1762    0.7143 N.am      1 <0>        -0.7149
      9 C5          3.4342    6.1193    2.8381 C.3       1 <0>         0.1029
     10 C6          4.4920    7.0897    2.3794 C.2       1 <0>         0.5122
     11 O3          5.0251    6.9403    1.3003 O.2       1 <0>        -0.5215
     12 N3          4.8455    8.1237    3.1683 N.am      1 <0>        -0.5977
     13 C7          4.2016    8.3042    4.4717 C.3       1 <0>         0.0741
     14 C8          5.8738    9.0671    2.7224 C.3       1 <0>         0.1001
     15 C9          5.2249   10.1956    1.9632 C.2       1 <0>         0.4962
     16 O4          4.0218   10.2105    1.8098 O.2       1 <0>        -0.5049
     17 N4          5.9814   11.1885    1.4548 N.am      1 <0>        -0.6721
     18 C10         5.3916   12.1851    0.6676 C.ar      1 <0>         0.1332
     19 C11         6.0938   12.7380   -0.3951 C.ar      1 <0>        -0.1147
     20 C12         5.5081   13.7168   -1.1739 C.ar      1 <0>        -0.1341
     21 C13         4.2260   14.1550   -0.8884 C.ar      1 <0>         0.0850
     22 C14         3.5262   13.6091    0.1745 C.ar      1 <0>        -0.1345
     23 C15         4.1061   12.6260    0.9522 C.ar      1 <0>        -0.0915
     24 F1          3.6568   15.1163   -1.6482 F         1 <0>        -0.1387
     25 C16         1.1922    3.1451    0.0032 C.ar      1 <0>        -0.0931
     26 C17         1.2150    1.7626    0.0009 C.ar      1 <0>        -0.0814
     27 C18         0.0297    1.0515    0.0035 C.ar      1 <0>        -0.1093
     28 C19        -1.1790    1.7222    0.0037 C.ar      1 <0>        -0.0801
     29 C20        -1.2023    3.1051    0.0114 C.ar      1 <0>        -0.0867
     30 C21        -0.0157    3.8164    0.0082 C.ar      1 <0>        -0.0803
     31 Br1        -2.8555    4.0231    0.0182 Br        1 <0>        -0.0391
     32 H1          2.1531    4.8204   -1.9289 H         1 <0>         0.0875
     33 H2          3.8572    4.7875   -1.4160 H         1 <0>         0.0783
     34 H3          3.0678    3.2943   -1.9775 H         1 <0>         0.0847
     35 H4          3.8907    2.3040    0.4801 H         1 <0>         0.4417
     36 H5          2.4993    6.6537    3.0065 H         1 <0>         0.1302
     37 H6          3.7539    5.6452    3.7660 H         1 <0>         0.1321
     38 H7          4.7663    7.7666    5.2335 H         1 <0>         0.0689
     39 H8          4.1752    9.3652    4.7201 H         1 <0>         0.0789
     40 H9          3.1842    7.9150    4.4314 H         1 <0>         0.0771
     41 H10         6.4000    9.4674    3.5890 H         1 <0>         0.1180
     42 H11         6.5821    8.5524    2.0731 H         1 <0>         0.1206
     43 H12         6.9343   11.2127    1.6342 H         1 <0>         0.4138
     44 H13         7.0955   12.3996   -0.6153 H         1 <0>         0.1370
     45 H14         6.0521   14.1436   -2.0035 H         1 <0>         0.1408
     46 H15         2.5262   13.9520    0.3953 H         1 <0>         0.1397
     47 H16         3.5599   12.2002    1.7808 H         1 <0>         0.1476
     48 H17         2.1591    1.2383   -0.0034 H         1 <0>         0.1305
     49 H18         0.0480   -0.0284    0.0010 H         1 <0>         0.1391
     50 H19        -2.1051    1.1665    0.0017 H         1 <0>         0.1380
     51 H20        -0.0334    4.8963    0.0100 H         1 <0>         0.1505
@<TRIPOS>BOND
     1    1    2 1
     2    1   32 1
     3    1   33 1
     4    1   34 1
     5    2    8 1
     6    2    3 1
     7    2   25 1
     8    3    4 2
     9    3    5 am
    10    5    6 am
    11    5    9 1
    12    6    7 2
    13    6    8 am
    14    8   35 1
    15    9   10 1
    16    9   36 1
    17    9   37 1
    18   10   11 2
    19   10   12 am
    20   12   13 1
    21   12   14 1
    22   13   38 1
    23   13   39 1
    24   13   40 1
    25   14   15 1
    26   14   41 1
    27   14   42 1
    28   15   16 2
    29   15   17 am
    30   17   18 1
    31   17   43 1
    32   18   23 ar
    33   18   19 ar
    34   19   20 ar
    35   19   44 1
    36   20   21 ar
    37   20   45 1
    38   21   22 ar
    39   21   24 1
    40   22   23 ar
    41   22   46 1
    42   23   47 1
    43   25   30 ar
    44   25   26 ar
    45   26   27 ar
    46   26   48 1
    47   27   28 ar
    48   27   49 1
    49   28   29 ar
    50   28   50 1
    51   29   30 ar
    52   29   31 1
    53   30   51 1
@<TRIPOS>MOLECULE
ZINC12709291
   64    66     0     0     0
SMALL
USER_CHARGES
N-cyclopentyl-2-[(2,3-dimethylphenyl)-[2-[(R)-[2-[(4-fluorophenyl)amino]-2-oxo-ethyl]sulfinyl]acetyl]amino]acetamide
@<TRIPOS>ATOM
      1 C1          9.4398    5.9373   -0.3925 C.3       1 <0>        -0.1171
      2 C2          8.2729    5.4111    0.4028 C.ar      1 <0>        -0.0815
      3 C3          7.3876    6.2927    0.9961 C.ar      1 <0>        -0.1064
      4 C4          6.3160    5.8139    1.7269 C.ar      1 <0>        -0.1160
      5 C5          6.1261    4.4528    1.8662 C.ar      1 <0>        -0.1065
      6 C6          7.0128    3.5651    1.2714 C.ar      1 <0>         0.1217
      7 C7          8.0916    4.0493    0.5427 C.ar      1 <0>        -0.0792
      8 C8          9.0602    3.0895   -0.0989 C.3       1 <0>        -0.1200
      9 N1          6.8232    2.1858    1.4106 N.am      1 <0>        -0.5460
     10 C9          6.0117    1.4557    0.4336 C.3       1 <0>         0.0967
     11 C10         4.5735    1.4440    0.8837 C.2       1 <0>         0.4994
     12 O1          4.2576    1.9916    1.9187 O.2       1 <0>        -0.5260
     13 N2          3.6384    0.8250    0.1361 N.am      1 <0>        -0.7224
     14 C11         2.2404    0.8136    0.5737 C.3       1 <0>         0.1388
     15 C12         1.4694    2.0185   -0.0204 C.3       1 <0>        -0.1339
     16 C13        -0.0055    1.5663   -0.0098 C.3       1 <0>        -0.1242
     17 C14         0.0064    0.0276   -0.0117 C.3       1 <0>        -0.1229
     18 C15         1.4882   -0.4016   -0.0235 C.3       1 <0>        -0.1308
     19 C16         7.3872    1.5289    2.4435 C.2       1 <0>         0.5602
     20 O2          7.2229    0.3333    2.5641 O.2       1 <0>        -0.5201
     21 C17         8.2221    2.2800    3.4485 C.3       1 <0>        -0.5069
     22 S1          8.8365    1.1267    4.7067 S.o       1 <0>         1.3578
     23 O3          7.7379    0.5695    5.4152 O.2       1 <0>        -0.7899
     24 C18         9.8085    2.1737    5.8245 C.3       1 <0>        -0.5143
     25 C19        10.3838    1.3282    6.9313 C.2       1 <0>         0.5443
     26 O4         10.1601    0.1366    6.9631 O.2       1 <0>        -0.5103
     27 N3         11.1469    1.8963    7.8861 N.am      1 <0>        -0.6678
     28 C20        11.6013    1.1306    8.9669 C.ar      1 <0>         0.1294
     29 C21        11.7225    1.7064   10.2245 C.ar      1 <0>        -0.1148
     30 C22        12.1653    0.9479   11.2904 C.ar      1 <0>        -0.1348
     31 C23        12.4992   -0.3829   11.1032 C.ar      1 <0>         0.0860
     32 C24        12.3844   -0.9575    9.8485 C.ar      1 <0>        -0.1337
     33 C25        11.9365   -0.2040    8.7812 C.ar      1 <0>        -0.0911
     34 F1         12.9370   -1.1217   12.1460 F         1 <0>        -0.1383
     35 H1         10.2978    6.0708    0.2664 H         1 <0>         0.0730
     36 H2          9.6931    5.2269   -1.1794 H         1 <0>         0.0707
     37 H3          9.1726    6.8948   -0.8395 H         1 <0>         0.0683
     38 H4          7.5339    7.3573    0.8886 H         1 <0>         0.1260
     39 H5          5.6265    6.5049    2.1890 H         1 <0>         0.1265
     40 H6          5.2887    4.0795    2.4369 H         1 <0>         0.1355
     41 H7          8.7209    2.8504   -1.1067 H         1 <0>         0.0741
     42 H8         10.0478    3.5481   -0.1472 H         1 <0>         0.0752
     43 H9          9.1124    2.1759    0.4933 H         1 <0>         0.0676
     44 H10         6.3753    0.4313    0.3522 H         1 <0>         0.1223
     45 H11         6.0845    1.9453   -0.5375 H         1 <0>         0.1112
     46 H12         3.8911    0.3870   -0.6917 H         1 <0>         0.4010
     47 H13         2.1750    0.8117    1.6617 H         1 <0>         0.0969
     48 H14         1.8000    2.2177   -1.0398 H         1 <0>         0.0681
     49 H15         1.6021    2.9018    0.6042 H         1 <0>         0.0681
     50 H16        -0.5160    1.9369   -0.8987 H         1 <0>         0.0667
     51 H17        -0.5025    1.9347    0.8877 H         1 <0>         0.0660
     52 H18        -0.4848   -0.3507    0.8847 H         1 <0>         0.0675
     53 H19        -0.4983   -0.3485   -0.9016 H         1 <0>         0.0686
     54 H20         1.6346   -1.2843    0.5989 H         1 <0>         0.0729
     55 H21         1.8211   -0.5954   -1.0431 H         1 <0>         0.0720
     56 H22         9.0659    2.7486    2.9421 H         1 <0>         0.1470
     57 H23         7.6128    3.0476    3.9257 H         1 <0>         0.1186
     58 H24        10.6190    2.6446    5.2682 H         1 <0>         0.1515
     59 H25         9.1660    2.9435    6.2518 H         1 <0>         0.1202
     60 H26        11.3814    2.8355    7.8245 H         1 <0>         0.4147
     61 H27        11.4664    2.7454   10.3701 H         1 <0>         0.1361
     62 H28        12.2552    1.3941   12.2698 H         1 <0>         0.1406
     63 H29        12.6449   -1.9957    9.7045 H         1 <0>         0.1415
     64 H30        11.8468   -0.6526    7.8029 H         1 <0>         0.1520
@<TRIPOS>BOND
     1    1    2 1
     2    1   35 1
     3    1   36 1
     4    1   37 1
     5    2    7 ar
     6    2    3 ar
     7    3    4 ar
     8    3   38 1
     9    4    5 ar
    10    4   39 1
    11    5    6 ar
    12    5   40 1
    13    6    7 ar
    14    6    9 1
    15    7    8 1
    16    8   41 1
    17    8   42 1
    18    8   43 1
    19    9   10 1
    20    9   19 am
    21   10   11 1
    22   10   44 1
    23   10   45 1
    24   11   12 2
    25   11   13 am
    26   13   14 1
    27   13   46 1
    28   14   18 1
    29   14   15 1
    30   14   47 1
    31   15   16 1
    32   15   48 1
    33   15   49 1
    34   16   17 1
    35   16   50 1
    36   16   51 1
    37   17   18 1
    38   17   52 1
    39   17   53 1
    40   18   54 1
    41   18   55 1
    42   19   20 2
    43   19   21 1
    44   21   22 1
    45   21   56 1
    46   21   57 1
    47   22   23 2
    48   22   24 1
    49   24   25 1
    50   24   58 1
    51   24   59 1
    52   25   26 2
    53   25   27 am
    54   27   28 1
    55   27   60 1
    56   28   33 ar
    57   28   29 ar
    58   29   30 ar
    59   29   61 1
    60   30   31 ar
    61   30   62 1
    62   31   32 ar
    63   31   34 1
    64   32   33 ar
    65   32   63 1
    66   33   64 1
@<TRIPOS>MOLECULE
ZINC20394664
   57    61     0     0     0
SMALL
USER_CHARGES
2-(dimethyl-methylsulfanyl-morpholino-BLAHyl)sulfanylacetamide
@<TRIPOS>ATOM
      1 C1         -4.9693    2.1783   -0.0938 C.3       1 <0>        -0.1391
      2 C2         -3.5821    2.7220    0.2539 C.3       1 <0>         0.1085
      3 C3         -2.5160    1.6874   -0.1141 C.3       1 <0>        -0.1077
      4 C4         -1.1512    2.3181   -0.0423 C.ar      1 <0>         0.0523
      5 C5         -0.9810    3.6672   -0.0289 C.ar      1 <0>        -0.1494
      6 C6          0.3089    4.2065    0.0206 C.ar      1 <0>         0.3561
      7 N1          1.3671    3.4123    0.0638 N.ar      1 <0>        -0.4740
      8 C7          1.2368    2.1020    0.0619 C.ar      1 <0>         0.1374
      9 C8         -0.0177    1.4704    0.0108 C.ar      1 <0>        -0.1462
     10 C9          0.0022   -0.0041    0.0130 C.ar      1 <0>         0.2306
     11 C10         1.2677   -0.5990    0.0690 C.ar      1 <0>        -0.2330
     12 S1          2.4013    0.7621    0.1146 S.3       1 <0>         0.1671
     13 C11         1.4105   -1.9799    0.0781 C.ar      1 <0>         0.2128
     14 N2          0.3107   -2.7321    0.0311 N.ar      1 <0>        -0.5190
     15 C12        -0.8835   -2.1564   -0.0228 C.ar      1 <0>         0.3168
     16 N3         -1.0525   -0.8505   -0.0328 N.ar      1 <0>        -0.4827
     17 S2         -2.3107   -3.1879   -0.0836 S.3       1 <0>         0.0207
     18 C13        -1.5229   -4.8170   -0.0453 C.3       1 <0>        -0.1524
     19 S3          3.0074   -2.7210    0.1506 S.3       1 <0>         0.0753
     20 C14         2.5432   -4.4704    0.1334 C.3       1 <0>        -0.1564
     21 C15         3.7862   -5.3205    0.1904 C.2       1 <0>         0.5348
     22 O1          4.8784   -4.7954    0.2379 O.2       1 <0>        -0.5331
     23 N4          3.6842   -6.6644    0.1885 N.am      1 <0>        -0.8689
     24 N5          0.4804    5.5841    0.0240 N.pl3     1 <0>        -0.4811
     25 C16         1.2406    6.0233   -1.1552 C.3       1 <0>         0.0167
     26 C17         1.3547    7.5500   -1.1426 C.3       1 <0>         0.0637
     27 O2          1.9653    7.9673    0.0815 O.3       1 <0>        -0.3798
     28 C18         1.2508    7.5570    1.2504 C.3       1 <0>         0.0637
     29 C19         1.1356    6.0304    1.2621 C.3       1 <0>         0.0179
     30 C20        -2.1570    4.6093   -0.0638 C.3       1 <0>         0.1166
     31 O3         -3.3306    3.9166   -0.4951 O.3       1 <0>        -0.3642
     32 C21        -3.5082    3.0276    1.7513 C.3       1 <0>        -0.1824
     33 H1         -5.1588    1.2611    0.4832 H         1 <0>         0.0753
     34 H2         -5.0151    1.9511   -1.1691 H         1 <0>         0.0671
     35 H3         -5.7313    2.9318    0.1546 H         1 <0>         0.0687
     36 H4         -2.5654    0.8437    0.5900 H         1 <0>         0.1098
     37 H5         -2.6961    1.3230   -1.1362 H         1 <0>         0.1010
     38 H6         -2.2959   -5.5989   -0.0777 H         1 <0>         0.1123
     39 H7         -0.9366   -4.9191    0.8798 H         1 <0>         0.0913
     40 H8         -0.8574   -4.9230   -0.9147 H         1 <0>         0.0914
     41 H9          1.9086   -4.6899    1.0046 H         1 <0>         0.1274
     42 H10         1.9884   -4.6935   -0.7899 H         1 <0>         0.1275
     43 H11         4.5915   -7.2849    0.2301 H         1 <0>         0.4320
     44 H12         2.6936   -7.1407    0.1453 H         1 <0>         0.4243
     45 H13         2.2462    5.5783   -1.1297 H         1 <0>         0.0657
     46 H14         0.7197    5.7001   -2.0685 H         1 <0>         0.0907
     47 H15         1.9707    7.8787   -1.9926 H         1 <0>         0.1063
     48 H16         0.3513    7.9934   -1.2239 H         1 <0>         0.0650
     49 H17         1.7917    7.8927    2.1475 H         1 <0>         0.1060
     50 H18         0.2451    8.0024    1.2406 H         1 <0>         0.0648
     51 H19         0.5373    5.7125    2.1287 H         1 <0>         0.0893
     52 H20         2.1395    5.5855    1.3266 H         1 <0>         0.0656
     53 H21        -2.3293    5.0181    0.9428 H         1 <0>         0.0758
     54 H22        -1.9469    5.4323   -0.7628 H         1 <0>         0.1196
     55 H23        -2.5096    3.4181    1.9970 H         1 <0>         0.0591
     56 H24        -3.6924    2.1061    2.3231 H         1 <0>         0.0711
     57 H25        -4.2694    3.7782    2.0103 H         1 <0>         0.0714
@<TRIPOS>BOND
     1    1    2 1
     2    1   33 1
     3    1   34 1
     4    1   35 1
     5    2   31 1
     6    2    3 1
     7    2   32 1
     8    3    4 1
     9    3   36 1
    10    3   37 1
    11    4    9 ar
    12    4    5 ar
    13    5    6 ar
    14    5   30 1
    15    6    7 ar
    16    6   24 1
    17    7    8 ar
    18    8   12 1
    19    8    9 ar
    20    9   10 1
    21   10   16 ar
    22   10   11 ar
    23   11   12 1
    24   11   13 ar
    25   13   14 ar
    26   13   19 1
    27   14   15 ar
    28   15   16 ar
    29   15   17 1
    30   17   18 1
    31   18   38 1
    32   18   39 1
    33   18   40 1
    34   19   20 1
    35   20   21 1
    36   20   41 1
    37   20   42 1
    38   21   22 2
    39   21   23 am
    40   23   43 1
    41   23   44 1
    42   24   29 1
    43   24   25 1
    44   25   26 1
    45   25   45 1
    46   25   46 1
    47   26   27 1
    48   26   47 1
    49   26   48 1
    50   27   28 1
    51   28   29 1
    52   28   49 1
    53   28   50 1
    54   29   51 1
    55   29   52 1
    56   30   31 1
    57   30   53 1
    58   30   54 1
    59   32   55 1
    60   32   56 1
    61   32   57 1
@<TRIPOS>MOLECULE
ZINC33298277
   61    64     0     0     0
SMALL
USER_CHARGES
1-[4-acetamido-5-(pyrrolidine-1-carbonyl)thiazol-2-yl]-N-[(2-chlorophenyl)methyl]piperidine-4-carboxamide
@<TRIPOS>ATOM
      1 C1         -8.0991   -5.0983   -9.1473 C.3       1 <0>        -0.1710
      2 C2         -7.6370   -3.9492   -8.2889 C.2       1 <0>         0.5025
      3 O1         -7.0615   -4.1662   -7.2436 O.2       1 <0>        -0.4848
      4 N1         -7.8632   -2.6802   -8.6827 N.am      1 <0>        -0.6542
      5 C3         -7.4364   -1.6189   -7.8899 C.2       1 <0>         0.4391
      6 C4         -7.6567   -0.2938   -8.2721 C.2       1 <0>        -0.3681
      7 S1         -6.9100    0.5729   -6.8993 S.3       1 <0>         0.1213
      8 C5         -6.4030   -0.8201   -5.9958 C.2       1 <0>         0.3045
      9 N2         -6.8070   -1.8249   -6.7568 N.2       1 <0>        -0.5502
     10 N3         -5.7395   -0.8679   -4.7892 N.pl3     1 <0>        -0.4271
     11 C6         -5.5010   -2.2563   -4.3743 C.3       1 <0>         0.0644
     12 C7         -4.8959   -2.2733   -2.9688 C.3       1 <0>        -0.0999
     13 C8         -3.5803   -1.4898   -2.9753 C.3       1 <0>        -0.1103
     14 C9         -3.8485   -0.0614   -3.4572 C.3       1 <0>        -0.1073
     15 C10        -4.4840   -0.1084   -4.8485 C.3       1 <0>         0.0550
     16 C11        -3.0097   -1.4522   -1.5810 C.2       1 <0>         0.5218
     17 O2         -3.5965   -1.9979   -0.6707 O.2       1 <0>        -0.5356
     18 N4         -1.8473   -0.8120   -1.3457 N.am      1 <0>        -0.7338
     19 C12        -1.2925   -0.7754    0.0097 C.3       1 <0>         0.1606
     20 C13         0.0021   -0.0041    0.0020 C.ar      1 <0>        -0.1007
     21 C14         1.2086   -0.6786   -0.0131 C.ar      1 <0>        -0.0886
     22 C15         2.3961    0.0287   -0.0207 C.ar      1 <0>        -0.1155
     23 C16         2.3780    1.4112   -0.0131 C.ar      1 <0>        -0.0988
     24 C17         1.1725    2.0866    0.0021 C.ar      1 <0>        -0.1121
     25 C18        -0.0167    1.3791    0.0096 C.ar      1 <0>        -0.0225
     26 Cl1        -1.5315    2.2269    0.0214 Cl        1 <0>        -0.0591
     27 C19        -8.2932    0.2191   -9.4240 C.2       1 <0>         0.6410
     28 O3         -8.7456   -0.5429  -10.2602 O.2       1 <0>        -0.5542
     29 N5         -8.3999    1.5512   -9.5982 N.am      1 <0>        -0.6180
     30 C20        -7.9065    2.5791   -8.6700 C.3       1 <0>         0.0859
     31 C21        -8.2728    3.9526   -9.2703 C.3       1 <0>        -0.1305
     32 C22        -9.4552    3.6122  -10.2156 C.3       1 <0>        -0.1296
     33 C23        -9.0365    2.2191  -10.7481 C.3       1 <0>         0.1111
     34 H1         -8.5962   -4.7070  -10.0472 H         1 <0>         0.0808
     35 H2         -8.8065   -5.7196   -8.5785 H         1 <0>         0.1005
     36 H3         -7.2319   -5.7071   -9.4428 H         1 <0>         0.1001
     37 H4         -8.3852   -2.4833   -9.6307 H         1 <0>         0.4607
     38 H5         -6.4536   -2.8063   -4.3696 H         1 <0>         0.1007
     39 H6         -4.8047   -2.7350   -5.0786 H         1 <0>         0.0632
     40 H7         -5.5983   -1.8081   -2.2616 H         1 <0>         0.0849
     41 H8         -4.7041   -3.3129   -2.6647 H         1 <0>         0.0874
     42 H9         -2.8512   -1.9809   -3.6365 H         1 <0>         0.1002
     43 H10        -4.5326    0.4396   -2.7565 H         1 <0>         0.0869
     44 H11        -2.9001    0.4940   -3.5040 H         1 <0>         0.0867
     45 H12        -3.7926   -0.5973   -5.5506 H         1 <0>         0.0636
     46 H13        -4.6910    0.9161   -5.1913 H         1 <0>         0.0942
     47 H14        -1.3151   -0.3170   -2.1714 H         1 <0>         0.4202
     48 H15        -2.0079   -0.2842    0.6856 H         1 <0>         0.0821
     49 H16        -1.1055   -1.8022    0.3572 H         1 <0>         0.0788
     50 H17         1.2234   -1.7585   -0.0194 H         1 <0>         0.1341
     51 H18         3.3385   -0.4987   -0.0329 H         1 <0>         0.1322
     52 H19         3.3061    1.9634   -0.0190 H         1 <0>         0.1344
     53 H20         1.1584    3.1665    0.0084 H         1 <0>         0.1358
     54 H21        -8.3848    2.4467   -7.6883 H         1 <0>         0.0739
     55 H22        -6.8160    2.4830   -8.5625 H         1 <0>         0.0734
     56 H23        -8.5608    4.6409   -8.4621 H         1 <0>         0.0861
     57 H24        -7.4044    4.3612   -9.8078 H         1 <0>         0.0798
     58 H25       -10.3918    3.5933   -9.6391 H         1 <0>         0.0794
     59 H26        -9.5255    4.3756  -11.0044 H         1 <0>         0.0891
     60 H27        -8.3127    2.2988  -11.5726 H         1 <0>         0.0722
     61 H28        -9.9055    1.6312  -11.0786 H         1 <0>         0.0832
@<TRIPOS>BOND
     1    1    2 1
     2    1   34 1
     3    1   35 1
     4    1   36 1
     5    2    3 2
     6    2    4 am
     7    4    5 1
     8    4   37 1
     9    5    9 1
    10    5    6 2
    11    6    7 1
    12    6   27 1
    13    7    8 1
    14    8    9 2
    15    8   10 1
    16   10   15 1
    17   10   11 1
    18   11   12 1
    19   11   38 1
    20   11   39 1
    21   12   13 1
    22   12   40 1
    23   12   41 1
    24   13   14 1
    25   13   16 1
    26   13   42 1
    27   14   15 1
    28   14   43 1
    29   14   44 1
    30   15   45 1
    31   15   46 1
    32   16   17 2
    33   16   18 am
    34   18   19 1
    35   18   47 1
    36   19   20 1
    37   19   48 1
    38   19   49 1
    39   20   25 ar
    40   20   21 ar
    41   21   22 ar
    42   21   50 1
    43   22   23 ar
    44   22   51 1
    45   23   24 ar
    46   23   52 1
    47   24   25 ar
    48   24   53 1
    49   25   26 1
    50   27   28 2
    51   27   29 am
    52   29   33 1
    53   29   30 1
    54   30   31 1
    55   30   54 1
    56   30   55 1
    57   31   32 1
    58   31   56 1
    59   31   57 1
    60   32   33 1
    61   32   58 1
    62   32   59 1
    63   33   60 1
    64   33   61 1
@<TRIPOS>MOLECULE
ZINC43209297
   53    57     0     0     0
SMALL
USER_CHARGES

@<TRIPOS>ATOM
      1 C1         -0.0178    1.4608    0.0101 C.3       1 <0>         0.0718
      2 N1          0.0021   -0.0041    0.0020 N.am      1 <0>        -0.5952
      3 C2         -1.1299   -0.7789    0.0032 C.2       1 <0>         0.5785
      4 O1         -2.2699   -0.4225   -0.2043 O.2       1 <0>        -0.4402
      5 C3         -0.6653   -2.1132    0.3054 C.3       1 <0>        -0.2074
      6 H1         -0.2980   -2.0533    1.3299 H         1 <0>         0.1221
      7 C4         -1.1101   -3.5081    0.1475 C.3       1 <0>         0.1597
      8 H2         -1.7747   -3.7974    0.9616 H         1 <0>         0.1333
      9 N2          0.1838   -4.2691    0.2183 N.3       1 <0>        -0.3049
     10 O2          1.2767   -3.2566    0.3100 O.3       1 <0>        -0.1986
     11 C5          0.7400   -2.1353   -0.4162 C.3       1 <0>         0.0415
     12 H3          0.6945   -2.2835   -1.4951 H         1 <0>         0.1490
     13 C6          1.1488   -0.7441   -0.0134 C.2       1 <0>         0.5459
     14 O3          2.2690   -0.3601    0.2461 O.2       1 <0>        -0.4392
     15 C7          0.2020   -5.1699    1.3786 C.3       1 <0>         0.0597
     16 C8          1.4577   -6.0026    1.3484 C.ar      1 <0>        -0.0559
     17 C9          1.4620   -7.2185    0.6882 C.ar      1 <0>        -0.1012
     18 C10         2.6082   -7.9857    0.6568 C.ar      1 <0>        -0.0601
     19 C11         3.7650   -7.5328    1.2930 C.ar      1 <0>        -0.1325
     20 C12         3.7538   -6.3053    1.9572 C.ar      1 <0>        -0.0870
     21 C13         2.6026   -5.5452    1.9762 C.ar      1 <0>        -0.1015
     22 C14         4.9968   -8.3500    1.2638 C.2       1 <0>         0.5622
     23 O4          5.0035   -9.4188    0.6849 O.2       1 <0>        -0.5379
     24 N3          6.1122   -7.9098    1.8790 N.am      1 <0>        -0.8507
     25 C15        -1.7819   -3.7085   -1.1864 C.2       1 <0>        -0.0037
     26 C16        -3.1120   -3.7375   -1.3996 C.2       1 <0>        -0.1731
     27 C17        -3.3044   -3.9461   -2.7800 C.2       1 <0>        -0.1808
     28 C18        -2.0681   -4.0339   -3.3388 C.2       1 <0>         0.0318
     29 O5         -1.1543   -3.8822   -2.3611 O.3       1 <0>        -0.1506
     30 C19        -1.7774   -4.2517   -4.7714 C.ar      1 <0>        -0.0014
     31 C20        -2.8232   -4.3819   -5.6868 C.ar      1 <0>        -0.0916
     32 C21        -2.5454   -4.5850   -7.0226 C.ar      1 <0>        -0.0856
     33 C22        -1.2326   -4.6603   -7.4559 C.ar      1 <0>        -0.0858
     34 C23        -0.1910   -4.5320   -6.5529 C.ar      1 <0>        -0.0861
     35 C24        -0.4559   -4.3223   -5.2155 C.ar      1 <0>        -0.0952
     36 Br1        -0.8607   -4.9403   -9.2887 Br        1 <0>        -0.0433
     37 H4          1.0048    1.8381    0.0023 H         1 <0>         0.0956
     38 H5         -0.5450    1.8219   -0.8730 H         1 <0>         0.0826
     39 H6         -0.5280    1.8123    0.9069 H         1 <0>         0.0794
     40 H7          0.1782   -4.5815    2.2958 H         1 <0>         0.0741
     41 H8         -0.6690   -5.8244    1.3441 H         1 <0>         0.1198
     42 H9          0.5661   -7.5680    0.1967 H         1 <0>         0.1324
     43 H10         2.6102   -8.9348    0.1414 H         1 <0>         0.1384
     44 H11         4.6457   -5.9492    2.4514 H         1 <0>         0.1272
     45 H12         2.5939   -4.5932    2.4861 H         1 <0>         0.1280
     46 H13         6.1069   -7.0569    2.3410 H         1 <0>         0.4012
     47 H14         6.9203   -8.4460    1.8599 H         1 <0>         0.4065
     48 H15        -3.8845   -3.6228   -0.6536 H         1 <0>         0.1560
     49 H16        -4.2509   -4.0220   -3.2945 H         1 <0>         0.1556
     50 H17        -3.8477   -4.3240   -5.3499 H         1 <0>         0.1390
     51 H18        -3.3536   -4.6859   -7.7318 H         1 <0>         0.1406
     52 H19         0.8309   -4.5916   -6.8970 H         1 <0>         0.1389
     53 H20         0.3575   -4.2175   -4.5127 H         1 <0>         0.1386
@<TRIPOS>BOND
     1    1    2 1
     2    1   37 1
     3    1   38 1
     4    1   39 1
     5    2   13 am
     6    2    3 am
     7    3    4 2
     8    3    5 1
     9    5    6 1
    10    5   11 1
    11    5    7 1
    12    7    8 1
    13    7    9 1
    14    7   25 1
    15    9   10 1
    16    9   15 1
    17   10   11 1
    18   11   12 1
    19   11   13 1
    20   13   14 2
    21   15   16 1
    22   15   40 1
    23   15   41 1
    24   16   21 ar
    25   16   17 ar
    26   17   18 ar
    27   17   42 1
    28   18   19 ar
    29   18   43 1
    30   19   20 ar
    31   19   22 1
    32   20   21 ar
    33   20   44 1
    34   21   45 1
    35   22   23 2
    36   22   24 am
    37   24   46 1
    38   24   47 1
    39   25   29 1
    40   25   26 2
    41   26   27 1
    42   26   48 1
    43   27   28 2
    44   27   49 1
    45   28   29 1
    46   28   30 1
    47   30   35 ar
    48   30   31 ar
    49   31   32 ar
    50   31   50 1
    51   32   33 ar
    52   32   51 1
    53   33   34 ar
    54   33   36 1
    55   34   35 ar
    56   34   52 1
    57   35   53 1
@<TRIPOS>MOLECULE
ZINC02924997
   51    53     0     0     0
SMALL
USER_CHARGES
2-[2-chloro-6-methoxy-4-[[3-(m-tolylcarbamoylmethyl)-2,4-dioxo-thiazolidin-5-ylidene]methyl]phenoxy]acetic acid
@<TRIPOS>ATOM
      1 C1         -7.8507    5.2645   -6.8226 C.3       1 <0>        -0.1164
      2 C2         -8.8567    4.8705   -5.7720 C.ar      1 <0>        -0.0674
      3 C3        -10.1522    4.5556   -6.1398 C.ar      1 <0>        -0.1343
      4 C4        -11.0784    4.1944   -5.1789 C.ar      1 <0>        -0.0981
      5 C5        -10.7122    4.1470   -3.8479 C.ar      1 <0>        -0.1495
      6 C6         -9.4122    4.4621   -3.4754 C.ar      1 <0>         0.1449
      7 C7         -8.4856    4.8297   -4.4426 C.ar      1 <0>        -0.1214
      8 N1         -9.0380    4.4150   -2.1279 N.am      1 <0>        -0.6679
      9 C8         -7.7898    4.0372   -1.7880 C.2       1 <0>         0.5041
     10 O1         -6.9587    3.8442   -2.6500 O.2       1 <0>        -0.5027
     11 C9         -7.4267    3.8545   -0.3368 C.3       1 <0>         0.0748
     12 N2         -6.0240    3.4448   -0.2322 N.am      1 <0>        -0.5629
     13 C10        -5.0864    4.3713   -0.1265 C.2       1 <0>         0.5679
     14 O2         -5.3584    5.5575   -0.1134 O.2       1 <0>        -0.4702
     15 C11        -3.6930    3.8939   -0.0247 C.2       1 <0>        -0.2208
     16 C12        -2.5418    4.6033    0.0924 C.2       1 <0>         0.0958
     17 C13        -1.2731    3.9078    0.3427 C.ar      1 <0>        -0.0729
     18 C14        -1.2762    2.5910    0.8198 C.ar      1 <0>        -0.1690
     19 C15        -0.0800    1.9420    1.0534 C.ar      1 <0>         0.1208
     20 C16         1.1277    2.5966    0.8141 C.ar      1 <0>         0.1213
     21 C17         1.1328    3.9025    0.3405 C.ar      1 <0>        -0.0351
     22 C18        -0.0568    4.5606    0.1102 C.ar      1 <0>        -0.0890
     23 Cl1         2.6407    4.7104    0.0447 Cl        1 <0>        -0.0319
     24 O3          2.3030    1.9551    1.0445 O.3       1 <0>        -0.2913
     25 C19         2.8665    2.0829    2.3515 C.3       1 <0>         0.0316
     26 C20         4.1586    1.3101    2.4192 C.2       1 <0>         0.4723
     27 O4          4.5561    0.7114    1.4479 O.co2     1 <0>        -0.6114
     28 O5         -0.0797    0.6634    1.5166 O.3       1 <0>        -0.2883
     29 C21        -1.3528    0.0539    1.7396 C.3       1 <0>         0.0198
     30 S1         -3.9383    2.1251   -0.1058 S.3       1 <0>        -0.0298
     31 C22        -5.7184    2.1313   -0.2455 C.2       1 <0>         0.5389
     32 O6         -6.4724    1.1812   -0.3359 O.2       1 <0>        -0.4184
     33 H1         -7.8789    6.3448   -6.9656 H         1 <0>         0.0720
     34 H2         -6.8530    4.9667   -6.5001 H         1 <0>         0.0691
     35 H3         -8.0925    4.7673   -7.7619 H         1 <0>         0.0681
     36 H4        -10.4411    4.5923   -7.1798 H         1 <0>         0.1234
     37 H5        -12.0894    3.9495   -5.4693 H         1 <0>         0.1269
     38 H6        -11.4361    3.8649   -3.0977 H         1 <0>         0.1255
     39 H7         -7.4750    5.0799   -4.1555 H         1 <0>         0.1401
     40 H8         -9.6770    4.6543   -1.4385 H         1 <0>         0.4137
     41 H9         -8.0632    3.0867    0.1031 H         1 <0>         0.1331
     42 H10        -7.5712    4.7949    0.1950 H         1 <0>         0.1361
     43 H11        -2.5590    5.6793    0.0014 H         1 <0>         0.1685
     44 H12        -2.2119    2.0845    1.0049 H         1 <0>         0.1483
     45 H13        -0.0501    5.5774   -0.2537 H         1 <0>         0.1487
     46 H14         3.0607    3.1345    2.5623 H         1 <0>         0.0593
     47 H15         2.1677    1.6876    3.0887 H         1 <0>         0.0596
     48 H16        -1.9084    0.6326    2.4775 H         1 <0>         0.0570
     49 H17        -1.9113    0.0263    0.8039 H         1 <0>         0.0576
     50 H18        -1.2098   -0.9621    2.1074 H         1 <0>         0.1073
     51 O7          4.8678    1.2870    3.5586 O.co2     1 <0>        -0.7579
@<TRIPOS>BOND
     1    1    2 1
     2    1   33 1
     3    1   34 1
     4    1   35 1
     5    2    7 ar
     6    2    3 ar
     7    3    4 ar
     8    3   36 1
     9    4    5 ar
    10    4   37 1
    11    5    6 ar
    12    5   38 1
    13    6    7 ar
    14    6    8 1
    15    7   39 1
    16    8    9 am
    17    8   40 1
    18    9   10 2
    19    9   11 1
    20   11   12 1
    21   11   41 1
    22   11   42 1
    23   12   31 am
    24   12   13 am
    25   13   14 2
    26   13   15 1
    27   15   16 2
    28   15   30 1
    29   16   17 1
    30   16   43 1
    31   17   22 ar
    32   17   18 ar
    33   18   19 ar
    34   18   44 1
    35   19   20 ar
    36   19   28 1
    37   20   21 ar
    38   20   24 1
    39   21   22 ar
    40   21   23 1
    41   22   45 1
    42   24   25 1
    43   25   26 1
    44   25   46 1
    45   25   47 1
    46   26   27 2
    47   26   51 1
    48   28   29 1
    49   29   48 1
    50   29   49 1
    51   29   50 1
    52   30   31 1
    53   31   32 2
@<TRIPOS>MOLECULE
ZINC15947436
   56    59     0     0     0
SMALL
USER_CHARGES
(6R,7R)-3-(acetoxymethyl)-7-[[5-[(4-methoxyphenoxy)methyl]furan-2-carbonyl]amino]-8-oxo-5-thia-1-azabicyclo[4.2.0]oct-2-ene-2-carboxylic acid
@<TRIPOS>ATOM
      1 C1         -2.1396   -4.3803    0.2220 C.3       1 <0>        -0.1450
      2 C2         -2.2595   -2.8781    0.2145 C.2       1 <0>         0.4526
      3 O1         -3.3505   -2.3592    0.1957 O.2       1 <0>        -0.5044
      4 O2         -1.1542   -2.1166    0.2288 O.3       1 <0>        -0.3845
      5 C3         -1.3407   -0.6818    0.1066 C.3       1 <0>         0.1392
      6 C4          0.0035   -0.0061    0.0192 C.2       1 <0>        -0.1686
      7 C5         -0.0168    1.3180    0.0089 C.2       1 <0>         0.1056
      8 N1          1.1829    2.0461   -0.0161 N.am      1 <0>        -0.5589
      9 C6          2.5232    1.5333   -0.4501 C.3       1 <0>         0.1290
     10 H1          2.7145    1.5011   -1.5227 H         1 <0>         0.1478
     11 C7          3.0866    2.7454    0.2842 C.3       1 <0>         0.1244
     12 H2          3.7264    3.3741   -0.3350 H         1 <0>         0.1521
     13 C8          1.6534    3.2405    0.3807 C.2       1 <0>         0.5333
     14 O3          1.1391    4.2941    0.6914 O.2       1 <0>        -0.4311
     15 N2          3.6861    2.4215    1.5812 N.am      1 <0>        -0.6887
     16 C9          4.6350    3.2232    2.1039 C.2       1 <0>         0.6101
     17 O4          4.9939    4.2161    1.4986 O.2       1 <0>        -0.5065
     18 C10         5.2351    2.8991    3.4022 C.2       1 <0>        -0.0564
     19 C11         6.2006    3.6215    4.0427 C.2       1 <0>        -0.1184
     20 C12         6.4749    2.9517    5.2453 C.2       1 <0>        -0.1842
     21 C13         5.6748    1.8634    5.2857 C.2       1 <0>         0.0079
     22 O5          4.9257    1.8379    4.1758 O.3       1 <0>        -0.1502
     23 C14         5.6293    0.8485    6.3988 C.3       1 <0>         0.1406
     24 O6          4.6626    1.2509    7.3711 O.3       1 <0>        -0.3070
     25 C15         4.4959    0.4386    8.4489 C.ar      1 <0>         0.0962
     26 C16         5.2439   -0.7238    8.5634 C.ar      1 <0>        -0.1693
     27 C17         5.0781   -1.5464    9.6606 C.ar      1 <0>        -0.1680
     28 C18         4.1561   -1.2155   10.6425 C.ar      1 <0>         0.0909
     29 C19         3.4043   -0.0558   10.5253 C.ar      1 <0>        -0.1095
     30 C20         3.5739    0.7695    9.4307 C.ar      1 <0>        -0.1063
     31 O7          3.9888   -2.0282   11.7198 O.3       1 <0>        -0.3180
     32 C21         4.7963   -3.2059   11.7756 C.3       1 <0>         0.0274
     33 S1          2.7287   -0.0645    0.4063 S.3       1 <0>        -0.2438
     34 C22         1.1859   -0.9171   -0.0452 C.3       1 <0>        -0.0123
     35 C23        -1.3068    2.0312    0.0177 C.2       1 <0>         0.4832
     36 O8         -1.3309    3.2420    0.1161 O.co2     1 <0>        -0.5925
     37 H3         -1.6922   -4.7045    1.1616 H         1 <0>         0.0946
     38 H4         -3.1297   -4.8244    0.1187 H         1 <0>         0.0952
     39 H5         -1.5102   -4.6987   -0.6090 H         1 <0>         0.0931
     40 H6         -1.8783   -0.3097    0.9788 H         1 <0>         0.1008
     41 H7         -1.9154   -0.4654   -0.7939 H         1 <0>         0.1064
     42 H8          3.4000    1.6302    2.0636 H         1 <0>         0.4202
     43 H9          6.6633    4.5323    3.6921 H         1 <0>         0.1668
     44 H10         7.1907    3.2500    5.9970 H         1 <0>         0.1615
     45 H11         5.3526   -0.1243    5.9923 H         1 <0>         0.0852
     46 H12         6.6105    0.7802    6.8686 H         1 <0>         0.0991
     47 H13         5.9587   -0.9837    7.7967 H         1 <0>         0.1320
     48 H14         5.6632   -2.4496    9.7517 H         1 <0>         0.1313
     49 H15         2.6861    0.2017   11.2897 H         1 <0>         0.1395
     50 H16         2.9883    1.6724    9.3393 H         1 <0>         0.1410
     51 H17         4.5639   -3.7631   12.6831 H         1 <0>         0.0994
     52 H18         4.5916   -3.8284   10.9046 H         1 <0>         0.0549
     53 H19         5.8493   -2.9244   11.7817 H         1 <0>         0.0540
     54 H20         1.0285   -1.7510    0.6388 H         1 <0>         0.1291
     55 H21         1.2793   -1.3054   -1.0594 H         1 <0>         0.0984
     56 O9         -2.4595    1.3402   -0.0834 O.co2     1 <0>        -0.7194
@<TRIPOS>BOND
     1    1    2 1
     2    1   37 1
     3    1   38 1
     4    1   39 1
     5    2    3 2
     6    2    4 1
     7    4    5 1
     8    5    6 1
     9    5   40 1
    10    5   41 1
    11    6   34 1
    12    6    7 2
    13    7    8 1
    14    7   35 1
    15    8   13 am
    16    8    9 1
    17    9   10 1
    18    9   11 1
    19    9   33 1
    20   11   12 1
    21   11   13 1
    22   11   15 1
    23   13   14 2
    24   15   16 am
    25   15   42 1
    26   16   17 2
    27   16   18 1
    28   18   22 1
    29   18   19 2
    30   19   20 1
    31   19   43 1
    32   20   21 2
    33   20   44 1
    34   21   22 1
    35   21   23 1
    36   23   24 1
    37   23   45 1
    38   23   46 1
    39   24   25 1
    40   25   30 ar
    41   25   26 ar
    42   26   27 ar
    43   26   47 1
    44   27   28 ar
    45   27   48 1
    46   28   29 ar
    47   28   31 1
    48   29   30 ar
    49   29   49 1
    50   30   50 1
    51   31   32 1
    52   32   51 1
    53   32   52 1
    54   32   53 1
    55   33   34 1
    56   34   54 1
    57   34   55 1
    58   35   36 2
    59   35   56 1
@<TRIPOS>MOLECULE
ZINC32597700
   48    50     0     0     0
SMALL
USER_CHARGES
2-[4-chloro-2-[(Z)-[2,5-dioxo-1-[2-oxo-2-[2-(trifluoromethyl)anilino]ethyl]imidazolidin-4-ylidene]methyl]phenoxy]acetic acid
@<TRIPOS>ATOM
      1 C1          1.3625    3.0451   -0.2189 C.ar      1 <0>        -0.1409
      2 C2          1.3109    1.7611    0.2922 C.ar      1 <0>        -0.0647
      3 C3          0.1062    1.0891    0.3546 C.ar      1 <0>        -0.1333
      4 C4         -1.0538    1.7023   -0.1011 C.ar      1 <0>         0.2095
      5 C5         -0.9994    2.9933   -0.6093 C.ar      1 <0>        -0.2205
      6 C6          0.2089    3.6601   -0.6689 C.ar      1 <0>        -0.0538
      7 C7         -2.2561    3.6640   -1.1009 C.3       1 <0>         0.5104
      8 F1         -1.9483    4.9465   -1.5676 F         1 <0>        -0.1734
      9 F2         -2.8110    2.9101   -2.1406 F         1 <0>        -0.1725
     10 F3         -3.1758    3.7581   -0.0509 F         1 <0>        -0.1788
     11 N1         -2.2752    1.0219   -0.0447 N.am      1 <0>        -0.6880
     12 C8         -2.3033   -0.3218   -0.1450 C.2       1 <0>         0.5089
     13 O1         -1.2658   -0.9482   -0.1936 O.2       1 <0>        -0.4985
     14 C9         -3.6238   -1.0461   -0.1969 C.3       1 <0>         0.1059
     15 N2         -3.3863   -2.4876   -0.3051 N.am      1 <0>        -0.5633
     16 C10        -3.2587   -3.3324    0.7381 C.2       1 <0>         0.5668
     17 O2         -3.3168   -3.0482    1.9202 O.2       1 <0>        -0.4583
     18 C11        -3.0344   -4.6662    0.1603 C.2       1 <0>        -0.0085
     19 C12        -2.8506   -5.8333    0.8276 C.2       1 <0>         0.0048
     20 C13        -2.4655   -7.0454    0.0943 C.ar      1 <0>        -0.1008
     21 C14        -1.7965   -6.9445   -1.1312 C.ar      1 <0>        -0.0802
     22 C15        -1.4344   -8.0875   -1.8116 C.ar      1 <0>        -0.0804
     23 C16        -1.7389   -9.3367   -1.2925 C.ar      1 <0>        -0.0503
     24 C17        -2.4032   -9.4503   -0.0863 C.ar      1 <0>        -0.1996
     25 C18        -2.7712   -8.3134    0.6148 C.ar      1 <0>         0.1779
     26 O3         -3.4245   -8.4246    1.7994 O.3       1 <0>        -0.2718
     27 C19        -3.7013   -9.7466    2.2660 C.3       1 <0>         0.0107
     28 C20        -4.4260   -9.6723    3.5852 C.2       1 <0>         0.4694
     29 O4         -4.6794   -8.5975    4.0755 O.co2     1 <0>        -0.6093
     30 O5         -4.7899  -10.8001    4.2156 O.co2     1 <0>        -0.7505
     31 Cl1        -0.5993   -7.9623   -3.3284 Cl        1 <0>        -0.0717
     32 N3         -3.0518   -4.4727   -1.2280 N.am      1 <0>        -0.6764
     33 C21        -3.2689   -3.1655   -1.4571 C.2       1 <0>         0.7167
     34 O6         -3.3456   -2.6636   -2.5621 O.2       1 <0>        -0.5339
     35 H1          2.3060    3.5685   -0.2669 H         1 <0>         0.1355
     36 H2          2.2139    1.2832    0.6426 H         1 <0>         0.1363
     37 H3          0.0666    0.0861    0.7532 H         1 <0>         0.1574
     38 H4          0.2526    4.6628   -1.0678 H         1 <0>         0.1411
     39 H5         -3.2124    1.5837    0.0815 H         1 <0>         0.4385
     40 H6         -4.1934   -0.8362    0.7204 H         1 <0>         0.1363
     41 H7         -4.1965   -0.7023   -1.0708 H         1 <0>         0.1365
     42 H8         -2.9901   -5.8712    1.9181 H         1 <0>         0.1747
     43 H9         -1.5614   -5.9734   -1.5410 H         1 <0>         0.1439
     44 H10        -1.4547  -10.2267   -1.8343 H         1 <0>         0.1386
     45 H11        -2.6364  -10.4273    0.3106 H         1 <0>         0.1472
     46 H12        -4.3302  -10.2706    1.5312 H         1 <0>         0.0735
     47 H13        -2.7565  -10.2945    2.3970 H         1 <0>         0.0739
     48 H14        -2.9009   -5.3270   -1.9043 H         1 <0>         0.4649
@<TRIPOS>BOND
     1    1    6 ar
     2    1    2 ar
     3    1   35 1
     4    2    3 ar
     5    2   36 1
     6    3    4 ar
     7    3   37 1
     8    4    5 ar
     9    4   11 1
    10    5    6 ar
    11    5    7 1
    12    6   38 1
    13    7    8 1
    14    7    9 1
    15    7   10 1
    16   11   12 am
    17   11   39 1
    18   12   13 2
    19   12   14 1
    20   14   15 1
    21   14   40 1
    22   14   41 1
    23   15   33 am
    24   15   16 am
    25   16   17 2
    26   16   18 1
    27   18   19 2
    28   18   32 1
    29   19   20 1
    30   19   42 1
    31   20   25 ar
    32   20   21 ar
    33   21   22 ar
    34   21   43 1
    35   22   23 ar
    36   22   31 1
    37   23   24 ar
    38   23   44 1
    39   24   25 ar
    40   24   45 1
    41   25   26 1
    42   26   27 1
    43   27   28 1
    44   27   46 1
    45   27   47 1
    46   28   29 2
    47   28   30 1
    48   32   33 am
    49   32   48 1
    50   33   34 2
@<TRIPOS>MOLECULE
ZINC33812929
   70    73     0     0     0
SMALL
USER_CHARGES

@<TRIPOS>ATOM
      1 C1          1.1003    1.4762   -0.8338 C.3       1 <0>        -0.0964
      2 C2         -0.2065    1.0069   -1.4195 C.2       1 <0>        -0.0001
      3 C3         -0.4125   -0.1626   -2.1848 C.2       1 <0>        -0.2393
      4 C4         -1.7562   -0.2014   -2.5139 C.2       1 <0>         0.1472
      5 N1         -2.3528    0.8790   -1.9859 N.pl3     1 <0>        -0.5250
      6 H1         -3.2947    1.0962   -2.0664 H         1 <0>         0.4202
      7 C5         -1.4159    1.6280   -1.3063 C.2       1 <0>        -0.0802
      8 C6         -1.6744    2.8799   -0.5876 C.2       1 <0>         0.5379
      9 O1         -0.7640    3.4569   -0.0246 O.2       1 <0>        -0.4998
     10 O2         -2.9219    3.3912   -0.5510 O.3       1 <0>        -0.3634
     11 C7         -3.1011    4.6136    0.1672 C.3       1 <0>         0.0381
     12 C8         -2.4342   -1.2737   -3.3273 C.3       1 <0>        -0.1044
     13 C9          0.6110   -1.1548   -2.5617 C.2       1 <0>         0.5442
     14 O3          1.7499   -1.0416   -2.1474 O.2       1 <0>        -0.4764
     15 C10         0.2567   -2.2783   -3.4359 C.2       1 <0>        -0.4962
     16 C11         0.3710   -2.3193   -4.7831 C.2       1 <0>         0.2522
     17 C12        -0.0947   -3.6345   -5.2704 C.2       1 <0>         0.5096
     18 O4         -0.1159   -3.9789   -6.4354 O.2       1 <0>        -0.5335
     19 N2         -0.4913   -4.3943   -4.2333 N.am      1 <0>        -0.6133
     20 C13        -0.3001   -3.6149   -3.0045 C.3       1 <0>         0.2671
     21 H2         -1.2554   -3.4772   -2.4980 H         1 <0>         0.0691
     22 C14         0.6754   -4.3123   -2.0917 C.ar      1 <0>        -0.1032
     23 C15         1.8548   -4.8223   -2.6024 C.ar      1 <0>        -0.0437
     24 C16         2.7505   -5.4624   -1.7678 C.ar      1 <0>        -0.1527
     25 C17         2.4659   -5.5930   -0.4163 C.ar      1 <0>         0.1194
     26 C18         1.2821   -5.0801    0.0937 C.ar      1 <0>        -0.2094
     27 C19         0.3921   -4.4362   -0.7441 C.ar      1 <0>        -0.0756
     28 O5          3.3452   -6.2227    0.4066 O.3       1 <0>        -0.3150
     29 C20         2.9866   -6.3204    1.7864 C.3       1 <0>         0.0876
     30 C21         4.0739   -7.0441    2.5381 C.2       1 <0>        -0.1530
     31 C22         4.4939   -6.5814    3.6894 C.2       1 <0>        -0.1749
     32 C23        -1.0161   -5.7596   -4.3156 C.3       1 <0>         0.1445
     33 C24         0.1395   -6.7572   -4.2145 C.3       1 <0>         0.0314
     34 N3         -0.3868   -8.1262   -4.2971 N.3       1 <0>        -0.5328
     35 C25        -1.2170   -8.4429   -3.1259 C.3       1 <0>         0.0142
     36 C26        -1.7920   -9.8533   -3.2811 C.3       1 <0>         0.0647
     37 O6         -0.7195  -10.7838   -3.4522 O.3       1 <0>        -0.3881
     38 C27         0.1090  -10.5056   -4.5841 C.3       1 <0>         0.0654
     39 C28         0.7033   -9.1018   -4.4421 C.3       1 <0>         0.0188
     40 O7          0.8373   -1.3152   -5.5613 O.3       1 <0>        -0.6626
     41 H3          1.2220    1.0572    0.1651 H         1 <0>         0.0696
     42 H4          1.9224    1.1462   -1.4688 H         1 <0>         0.0831
     43 H5          1.1016    2.5645   -0.7739 H         1 <0>         0.0738
     44 H6         -2.4790    5.3906   -0.2770 H         1 <0>         0.0604
     45 H7         -4.1478    4.9138    0.1180 H         1 <0>         0.0992
     46 H8         -2.8133    4.4688    1.2085 H         1 <0>         0.0598
     47 H9         -2.6938   -2.1113   -2.6798 H         1 <0>         0.0812
     48 H10        -3.3400   -0.8692   -3.7788 H         1 <0>         0.0618
     49 H11        -1.7591   -1.6164   -4.1115 H         1 <0>         0.1147
     50 H12         2.0759   -4.7203   -3.6546 H         1 <0>         0.1227
     51 H13         3.6713   -5.8612   -2.1673 H         1 <0>         0.1238
     52 H14         1.0583   -5.1805    1.1454 H         1 <0>         0.1205
     53 H15        -0.5276   -4.0329   -0.3468 H         1 <0>         0.1200
     54 H16         2.8621   -5.3201    2.2012 H         1 <0>         0.0662
     55 H17         2.0510   -6.8718    1.8805 H         1 <0>         0.0689
     56 H18         4.5070   -7.9443    2.1275 H         1 <0>         0.1183
     57 H19         5.2731   -7.1000    4.2280 H         1 <0>         0.1063
     58 H20         4.0608   -5.6812    4.0999 H         1 <0>         0.0995
     59 H21        -1.7157   -5.9298   -3.4973 H         1 <0>         0.0714
     60 H22        -1.5303   -5.8944   -5.2672 H         1 <0>         0.0857
     61 H23         0.8391   -6.5869   -5.0329 H         1 <0>         0.0785
     62 H24         0.6537   -6.6223   -3.2630 H         1 <0>         0.0528
     63 H25        -0.6069   -8.3959   -2.2238 H         1 <0>         0.0432
     64 H26        -2.0325   -7.7234   -3.0525 H         1 <0>         0.0876
     65 H27        -2.3616  -10.1144   -2.3892 H         1 <0>         0.0951
     66 H28        -2.4450   -9.8862   -4.1533 H         1 <0>         0.0591
     67 H29         0.9144  -11.2384   -4.6346 H         1 <0>         0.0957
     68 H30        -0.4886  -10.5574   -5.4942 H         1 <0>         0.0594
     69 H31         1.2896   -8.8633   -5.3295 H         1 <0>         0.0862
     70 H32         1.3441   -9.0653   -3.5611 H         1 <0>         0.0431
@<TRIPOS>BOND
     1    1    2 1
     2    1   41 1
     3    1   42 1
     4    1   43 1
     5    2    7 2
     6    2    3 1
     7    3    4 2
     8    3   13 1
     9    4    5 1
    10    4   12 1
    11    5    6 1
    12    5    7 1
    13    7    8 1
    14    8    9 2
    15    8   10 1
    16   10   11 1
    17   11   44 1
    18   11   45 1
    19   11   46 1
    20   12   47 1
    21   12   48 1
    22   12   49 1
    23   13   14 2
    24   13   15 1
    25   15   20 1
    26   15   16 2
    27   16   17 1
    28   16   40 1
    29   17   18 2
    30   17   19 am
    31   19   20 1
    32   19   32 1
    33   20   21 1
    34   20   22 1
    35   22   27 ar
    36   22   23 ar
    37   23   24 ar
    38   23   50 1
    39   24   25 ar
    40   24   51 1
    41   25   26 ar
    42   25   28 1
    43   26   27 ar
    44   26   52 1
    45   27   53 1
    46   28   29 1
    47   29   30 1
    48   29   54 1
    49   29   55 1
    50   30   31 2
    51   30   56 1
    52   31   57 1
    53   31   58 1
    54   32   33 1
    55   32   59 1
    56   32   60 1
    57   33   34 1
    58   33   61 1
    59   33   62 1
    60   34   39 1
    61   34   35 1
    62   35   36 1
    63   35   63 1
    64   35   64 1
    65   36   37 1
    66   36   65 1
    67   36   66 1
    68   37   38 1
    69   38   39 1
    70   38   67 1
    71   38   68 1
    72   39   69 1
    73   39   70 1
@<TRIPOS>MOLECULE
ZINC40110526
   62    64     0     0     0
SMALL
USER_CHARGES

@<TRIPOS>ATOM
      1 C1          0.4639   -0.4804   -6.4878 C.3       1 <0>         0.0818
      2 N1          1.2389   -1.6653   -6.8643 N.pl3     1 <0>        -1.0071
      3 C2          0.6467   -2.9991   -6.7358 C.3       1 <0>         0.0895
      4 S1          2.7842   -1.4969   -7.4351 S.o2      1 <0>         2.6949
      5 O1          3.0590   -2.6552   -8.2110 O.2       1 <0>        -0.9550
      6 O2          2.8796   -0.1829   -7.9676 O.2       1 <0>        -0.9571
      7 C3          3.8630   -1.5556   -6.0432 C.ar      1 <0>        -0.6683
      8 C4          4.1938   -0.3878   -5.3783 C.ar      1 <0>        -0.0357
      9 C5          5.0377   -0.4266   -4.2880 C.ar      1 <0>        -0.0975
     10 C6          5.5587   -1.6480   -3.8554 C.ar      1 <0>        -0.0757
     11 C7          5.2207   -2.8226   -4.5310 C.ar      1 <0>        -0.0852
     12 C8          4.3712   -2.7701   -5.6164 C.ar      1 <0>        -0.0381
     13 C9          6.4643   -1.6972   -2.6877 C.2       1 <0>         0.4996
     14 O3          6.8316   -0.6649   -2.1588 O.2       1 <0>        -0.4632
     15 C10         6.9197   -2.9897   -2.1674 C.2       1 <0>        -0.5160
     16 C11         8.1867   -3.4659   -2.1846 C.2       1 <0>         0.2716
     17 C12         8.2104   -4.8055   -1.5600 C.2       1 <0>         0.5156
     18 O4          9.2020   -5.4943   -1.4244 O.2       1 <0>        -0.5158
     19 N2          6.9715   -5.1490   -1.1633 N.am      1 <0>        -0.6116
     20 C13         6.0665   -4.0446   -1.5024 C.3       1 <0>         0.2552
     21 H1          5.2963   -4.3922   -2.1908 H         1 <0>         0.0631
     22 C14         5.4332   -3.4873   -0.2537 C.2       1 <0>        -0.1078
     23 C15         4.1130   -3.4573   -0.1367 C.2       1 <0>        -0.1460
     24 C16         3.4891   -2.7927    1.0268 C.ar      1 <0>        -0.0380
     25 C17         4.2768   -2.0831    1.9340 C.ar      1 <0>        -0.1159
     26 C18         3.6882   -1.4650    3.0180 C.ar      1 <0>        -0.1164
     27 C19         2.3202   -1.5481    3.2069 C.ar      1 <0>        -0.1309
     28 C20         1.5337   -2.2505    2.3114 C.ar      1 <0>        -0.1214
     29 C21         2.1091   -2.8675    1.2196 C.ar      1 <0>        -0.1171
     30 C22         6.5939   -6.4013   -0.5035 C.3       1 <0>         0.1393
     31 C23         6.2711   -7.4581   -1.5617 C.3       1 <0>         0.0440
     32 O5          7.4529   -7.7655   -2.3039 O.3       1 <0>        -0.3576
     33 C24         7.2375   -8.6642   -3.3938 C.3       1 <0>         0.0622
     34 C25         8.5801   -9.0162   -4.0376 C.3       1 <0>         0.0780
     35 O6          9.3778   -9.7488   -3.1053 O.3       1 <0>        -0.5656
     36 O7          9.2605   -2.8189   -2.6930 O.3       1 <0>        -0.6509
     37 H2          0.6335   -0.2548   -5.4349 H         1 <0>         0.0571
     38 H3          0.7780    0.3676   -7.0963 H         1 <0>         0.0834
     39 H4         -0.5964   -0.6725   -6.6519 H         1 <0>         0.0766
     40 H5         -0.3677   -2.9104   -6.3469 H         1 <0>         0.0808
     41 H6          0.6203   -3.4806   -7.7133 H         1 <0>         0.0678
     42 H7          1.2470   -3.5987   -6.0515 H         1 <0>         0.0612
     43 H8          3.7904    0.5561   -5.7141 H         1 <0>         0.1389
     44 H9          5.2953    0.4855   -3.7703 H         1 <0>         0.1398
     45 H10         5.6205   -3.7704   -4.2019 H         1 <0>         0.1445
     46 H11         4.1056   -3.6782   -6.1371 H         1 <0>         0.1391
     47 H12         6.0548   -3.1123    0.5459 H         1 <0>         0.1138
     48 H13         3.4934   -3.9185   -0.8915 H         1 <0>         0.1162
     49 H14         5.3449   -2.0181    1.7880 H         1 <0>         0.1261
     50 H15         4.2968   -0.9154    3.7209 H         1 <0>         0.1202
     51 H16         1.8644   -1.0628    4.0572 H         1 <0>         0.1172
     52 H17         0.4665   -2.3123    2.4648 H         1 <0>         0.1184
     53 H18         1.4934   -3.4112    0.5184 H         1 <0>         0.1204
     54 H19         7.4201   -6.7487    0.1168 H         1 <0>         0.0853
     55 H20         5.7166   -6.2328    0.1211 H         1 <0>         0.0902
     56 H21         5.9037   -8.3608   -1.0735 H         1 <0>         0.0535
     57 H22         5.5072   -7.0740   -2.2376 H         1 <0>         0.0485
     58 H23         6.7612   -9.5732   -3.0265 H         1 <0>         0.0500
     59 H24         6.5930   -8.1899   -4.1339 H         1 <0>         0.0589
     60 H25         8.4088   -9.6244   -4.9258 H         1 <0>         0.0559
     61 H26         9.0994   -8.1002   -4.3191 H         1 <0>         0.0581
     62 H27        10.2726   -9.9399   -3.4183 H         1 <0>         0.3771
@<TRIPOS>BOND
     1    1    2 1
     2    1   37 1
     3    1   38 1
     4    1   39 1
     5    2    3 1
     6    2    4 1
     7    3   40 1
     8    3   41 1
     9    3   42 1
    10    4    5 2
    11    4    6 2
    12    4    7 1
    13    7   12 ar
    14    7    8 ar
    15    8    9 ar
    16    8   43 1
    17    9   10 ar
    18    9   44 1
    19   10   11 ar
    20   10   13 1
    21   11   12 ar
    22   11   45 1
    23   12   46 1
    24   13   14 2
    25   13   15 1
    26   15   20 1
    27   15   16 2
    28   16   17 1
    29   16   36 1
    30   17   18 2
    31   17   19 am
    32   19   20 1
    33   19   30 1
    34   20   21 1
    35   20   22 1
    36   22   23 2
    37   22   47 1
    38   23   24 1
    39   23   48 1
    40   24   29 ar
    41   24   25 ar
    42   25   26 ar
    43   25   49 1
    44   26   27 ar
    45   26   50 1
    46   27   28 ar
    47   27   51 1
    48   28   29 ar
    49   28   52 1
    50   29   53 1
    51   30   31 1
    52   30   54 1
    53   30   55 1
    54   31   32 1
    55   31   56 1
    56   31   57 1
    57   32   33 1
    58   33   34 1
    59   33   58 1
    60   33   59 1
    61   34   35 1
    62   34   60 1
    63   34   61 1
    64   35   62 1
@<TRIPOS>MOLECULE
ZINC08927961
   55    58     0     0     0
SMALL
USER_CHARGES
4-(acetoxymethyl)-8-[[5-[(4-chloro-2-methyl-phenoxy)methyl]-2-furyl]carbonylamino]-7-oxo-2-thia-6-azabicyclo[4.2.0]oct-4-ene-5-carboxylic acid
@<TRIPOS>ATOM
      1 C1         -5.6238   -1.4961    4.1619 C.3       1 <0>        -0.1080
      2 C2         -6.6725   -1.3024    3.0971 C.ar      1 <0>        -0.0995
      3 C3         -8.0056   -1.2101    3.4485 C.ar      1 <0>        -0.0739
      4 C4         -8.9687   -1.0323    2.4714 C.ar      1 <0>        -0.0673
      5 C5         -8.5991   -0.9465    1.1405 C.ar      1 <0>        -0.0741
      6 C6         -7.2671   -1.0340    0.7857 C.ar      1 <0>        -0.1932
      7 C7         -6.3002   -1.2172    1.7637 C.ar      1 <0>         0.1357
      8 O1         -4.9893   -1.3073    1.4162 O.3       1 <0>        -0.3009
      9 C8         -4.6790   -1.2111    0.0246 C.3       1 <0>         0.1381
     10 C9         -3.1891   -1.3318   -0.1674 C.2       1 <0>         0.0057
     11 C10        -2.5120   -2.4843   -0.3654 C.2       1 <0>        -0.1821
     12 C11        -1.1551   -2.1492   -0.4945 C.2       1 <0>        -0.1194
     13 C12        -1.0720   -0.7922   -0.3671 C.2       1 <0>        -0.0538
     14 O2         -2.3174   -0.3150   -0.1637 O.3       1 <0>        -0.1499
     15 C13         0.1566    0.0059   -0.4334 C.2       1 <0>         0.6084
     16 O3          1.2282   -0.5408   -0.6171 O.2       1 <0>        -0.5061
     17 N1          0.0988    1.3449   -0.2910 N.am      1 <0>        -0.6897
     18 C14         1.3261    2.1422   -0.3572 C.3       1 <0>         0.1195
     19 H1          2.2129    1.5696   -0.0856 H         1 <0>         0.1454
     20 C15         1.2204    3.4699    0.3749 C.3       1 <0>         0.1350
     21 H2          2.1049    3.7822    0.9302 H         1 <0>         0.1508
     22 N2          1.0714    4.0066   -1.0197 N.am      1 <0>        -0.5625
     23 C16         1.4781    2.8991   -1.6580 C.2       1 <0>         0.5422
     24 O4          1.8195    2.6237   -2.7889 O.2       1 <0>        -0.4281
     25 C17         0.5467    5.2663   -1.3695 C.2       1 <0>         0.0960
     26 C18        -0.2138    5.9384   -0.5214 C.2       1 <0>        -0.1667
     27 C19        -0.5988    5.5705    0.8747 C.3       1 <0>        -0.0124
     28 S1         -0.3797    3.7919    1.1904 S.3       1 <0>        -0.2353
     29 C20        -0.7632    7.2466   -1.0292 C.3       1 <0>         0.1371
     30 O5         -1.4981    7.9082    0.0340 O.3       1 <0>        -0.3843
     31 C21        -2.1411    9.0427   -0.2843 C.2       1 <0>         0.4530
     32 O6         -2.0177    9.5177   -1.3884 O.2       1 <0>        -0.5057
     33 C22        -3.0169    9.7240    0.7355 C.3       1 <0>        -0.1446
     34 C23         0.8483    5.8409   -2.6930 C.2       1 <0>         0.4827
     35 O7          1.6372    5.2849   -3.4312 O.co2     1 <0>        -0.5937
     36 Cl1       -10.6429   -0.9160    2.9154 Cl        1 <0>        -0.0714
     37 H3         -5.2758   -0.5236    4.5103 H         1 <0>         0.0741
     38 H4         -6.0523   -2.0494    4.9975 H         1 <0>         0.0681
     39 H5         -4.7847   -2.0553    3.7479 H         1 <0>         0.0747
     40 H6         -8.2958   -1.2764    4.4866 H         1 <0>         0.1403
     41 H7         -9.3524   -0.8074    0.3792 H         1 <0>         0.1370
     42 H8         -6.9787   -0.9629   -0.2526 H         1 <0>         0.1395
     43 H9         -5.0177   -0.2481   -0.3575 H         1 <0>         0.0886
     44 H10        -5.1811   -2.0134   -0.5160 H         1 <0>         0.1020
     45 H11        -2.9353   -3.4766   -0.4150 H         1 <0>         0.1616
     46 H12        -0.3356   -2.8323   -0.6625 H         1 <0>         0.1670
     47 H13        -0.7558    1.7811   -0.1486 H         1 <0>         0.4201
     48 H14         0.0193    6.1340    1.5737 H         1 <0>         0.0999
     49 H15        -1.6443    5.8335    1.0357 H         1 <0>         0.1273
     50 H16         0.0589    7.8843   -1.3541 H         1 <0>         0.1095
     51 H17        -1.4311    7.0582   -1.8699 H         1 <0>         0.0994
     52 H18        -2.9351    9.2041    1.6900 H         1 <0>         0.0859
     53 H19        -2.6962   10.7586    0.8567 H         1 <0>         0.0977
     54 H20        -4.0529    9.7020    0.3974 H         1 <0>         0.0987
     55 O8          0.2490    6.9829   -3.0843 O.co2     1 <0>        -0.7187
@<TRIPOS>BOND
     1    1    2 1
     2    1   37 1
     3    1   38 1
     4    1   39 1
     5    2    7 ar
     6    2    3 ar
     7    3    4 ar
     8    3   40 1
     9    4    5 ar
    10    4   36 1
    11    5    6 ar
    12    5   41 1
    13    6    7 ar
    14    6   42 1
    15    7    8 1
    16    8    9 1
    17    9   10 1
    18    9   43 1
    19    9   44 1
    20   10   14 1
    21   10   11 2
    22   11   12 1
    23   11   45 1
    24   12   13 2
    25   12   46 1
    26   13   14 1
    27   13   15 1
    28   15   16 2
    29   15   17 am
    30   17   18 1
    31   17   47 1
    32   18   19 1
    33   18   23 1
    34   18   20 1
    35   20   21 1
    36   20   28 1
    37   20   22 1
    38   22   23 am
    39   22   25 1
    40   23   24 2
    41   25   26 2
    42   25   34 1
    43   26   27 1
    44   26   29 1
    45   27   28 1
    46   27   48 1
    47   27   49 1
    48   29   30 1
    49   29   50 1
    50   29   51 1
    51   30   31 1
    52   31   32 2
    53   31   33 1
    54   33   52 1
    55   33   53 1
    56   33   54 1
    57   34   35 2
    58   34   55 1
@<TRIPOS>MOLECULE
ZINC33767764
   66    70     0     0     0
SMALL
USER_CHARGES
(2S)-3-(benzofuran-2-carbonyl)-2-(3-ethoxy-4-hydroxy-phenyl)-4-hydroxy-1-(3-morpholinopropyl)-2H-pyrrol-5-one
@<TRIPOS>ATOM
      1 C1          4.0511   -6.8844   -2.7956 C.3       1 <0>        -0.1484
      2 C2          2.6351   -6.3100   -2.7200 C.3       1 <0>         0.0513
      3 O1          2.4160   -5.4355   -3.8287 O.3       1 <0>        -0.3089
      4 C3          1.1678   -4.9134   -3.9661 C.ar      1 <0>         0.0877
      5 C4          0.2124   -5.1313   -2.9864 C.ar      1 <0>        -0.1340
      6 C5         -1.0562   -4.6003   -3.1278 C.ar      1 <0>        -0.0729
      7 C6         -1.3764   -3.8561   -4.2481 C.ar      1 <0>        -0.0940
      8 C7         -0.4263   -3.6302   -5.2264 C.ar      1 <0>        -0.1838
      9 C8          0.8471   -4.1596   -5.0909 C.ar      1 <0>         0.1203
     10 O2          1.7812   -3.9433   -6.0553 O.3       1 <0>        -0.5028
     11 C9         -2.0940   -4.8383   -2.0613 C.3       1 <0>         0.2576
     12 H1         -3.0120   -4.3043   -2.3478 H         1 <0>         0.0749
     13 C10        -2.3246   -6.3213   -1.8863 C.2       1 <0>        -0.4725
     14 C11        -2.0045   -6.6176   -0.6054 C.2       1 <0>         0.2836
     15 C12        -1.5625   -5.3873    0.0819 C.2       1 <0>         0.5084
     16 O3         -1.2077   -5.3260    1.2425 O.2       1 <0>        -0.5320
     17 N1         -1.6099   -4.3444   -0.7668 N.am      1 <0>        -0.6053
     18 C13        -1.2485   -2.9599   -0.4527 C.3       1 <0>         0.1390
     19 C14         0.2375   -2.7420   -0.7446 C.3       1 <0>        -0.1375
     20 C15         0.6150   -1.2960   -0.4165 C.3       1 <0>         0.0606
     21 N2          2.0418   -1.0868   -0.6968 N.3       1 <0>        -0.5323
     22 C16         2.3898    0.3396   -0.6218 C.3       1 <0>         0.0173
     23 C17         3.8679    0.5181   -0.9782 C.3       1 <0>         0.0625
     24 O4          4.6648   -0.2805   -0.0992 O.3       1 <0>        -0.3876
     25 C18         4.3529   -1.6754   -0.1470 C.3       1 <0>         0.0626
     26 C19         2.8796   -1.8761    0.2177 C.3       1 <0>         0.0146
     27 O5         -2.0777   -7.8466   -0.0431 O.3       1 <0>        -0.6012
     28 C20        -2.8070   -7.2582   -2.9068 C.2       1 <0>         0.4873
     29 O6         -2.8310   -8.4535   -2.6736 O.2       1 <0>        -0.4680
     30 C21        -3.2610   -6.7549   -4.2100 C.2       1 <0>         0.0118
     31 C22        -3.6023   -7.5316   -5.2744 C.2       1 <0>        -0.1703
     32 C23        -3.9885   -6.6097   -6.3405 C.ar      1 <0>        -0.1330
     33 C24        -4.4333   -6.7726   -7.6554 C.ar      1 <0>        -0.0683
     34 C25        -4.7145   -5.6732   -8.4160 C.ar      1 <0>        -0.1446
     35 C26        -4.5612   -4.3968   -7.8914 C.ar      1 <0>        -0.0992
     36 C27        -4.1236   -4.2146   -6.5972 C.ar      1 <0>        -0.1079
     37 C28        -3.8314   -5.3176   -5.8036 C.ar      1 <0>         0.0589
     38 O7         -3.3973   -5.4527   -4.5352 O.3       1 <0>        -0.1631
     39 H2          4.2197   -7.5576   -1.9421 H         1 <0>         0.0767
     40 H3          4.7821   -6.0630   -2.7648 H         1 <0>         0.0632
     41 H4          4.1695   -7.4456   -3.7342 H         1 <0>         0.0639
     42 H5          1.9041   -7.1314   -2.7508 H         1 <0>         0.0631
     43 H6          2.5167   -5.7488   -1.7814 H         1 <0>         0.0580
     44 H7          0.4588   -5.7157   -2.1122 H         1 <0>         0.1270
     45 H8         -2.3700   -3.4470   -4.3571 H         1 <0>         0.1206
     46 H9         -0.6777   -3.0448   -6.0985 H         1 <0>         0.1247
     47 H10         1.5264   -3.3472   -6.9440 H         1 <0>         0.4198
     48 H11        -1.8479   -2.2753   -1.0708 H         1 <0>         0.0762
     49 H12        -1.4462   -2.7616    0.6111 H         1 <0>         0.0766
     50 H13         0.8368   -3.4267   -0.1265 H         1 <0>         0.0643
     51 H14         0.4351   -2.9402   -1.8084 H         1 <0>         0.0835
     52 H15         0.0156   -0.6113   -1.0346 H         1 <0>         0.0766
     53 H16         0.4174   -1.0978    0.6473 H         1 <0>         0.0350
     54 H17         1.7686    0.9063   -1.3310 H         1 <0>         0.0853
     55 H18         2.2097    0.7078    0.3990 H         1 <0>         0.0405
     56 H19         4.0352    0.2007   -2.0180 H         1 <0>         0.0599
     57 H20         4.1463    1.5766   -0.8686 H         1 <0>         0.0962
     58 H21         4.5368   -2.0577   -1.1619 H         1 <0>         0.0613
     59 H22         4.9872   -2.2177    0.5696 H         1 <0>         0.0979
     60 H23         2.7073   -1.5435    1.2520 H         1 <0>         0.0419
     61 H24         2.6191   -2.9409    0.1267 H         1 <0>         0.0907
     62 H25        -3.5918   -8.6106   -5.3209 H         1 <0>         0.1604
     63 H26        -4.5539   -7.7632   -8.0685 H         1 <0>         0.1238
     64 H27        -5.0579   -5.7977   -9.4324 H         1 <0>         0.1240
     65 H28        -4.7877   -3.5370   -8.5044 H         1 <0>         0.1295
     66 H29        -4.0086   -3.2168   -6.2003 H         1 <0>         0.1287
@<TRIPOS>BOND
     1    1    2 1
     2    1   39 1
     3    1   40 1
     4    1   41 1
     5    2    3 1
     6    2   42 1
     7    2   43 1
     8    3    4 1
     9    4    9 ar
    10    4    5 ar
    11    5    6 ar
    12    5   44 1
    13    6    7 ar
    14    6   11 1
    15    7    8 ar
    16    7   45 1
    17    8    9 ar
    18    8   46 1
    19    9   10 1
    20   10   47 1
    21   11   12 1
    22   11   17 1
    23   11   13 1
    24   13   14 2
    25   13   28 1
    26   14   15 1
    27   14   27 1
    28   15   16 2
    29   15   17 am
    30   17   18 1
    31   18   19 1
    32   18   48 1
    33   18   49 1
    34   19   20 1
    35   19   50 1
    36   19   51 1
    37   20   21 1
    38   20   52 1
    39   20   53 1
    40   21   26 1
    41   21   22 1
    42   22   23 1
    43   22   54 1
    44   22   55 1
    45   23   24 1
    46   23   56 1
    47   23   57 1
    48   24   25 1
    49   25   26 1
    50   25   58 1
    51   25   59 1
    52   26   60 1
    53   26   61 1
    54   28   29 2
    55   28   30 1
    56   30   38 1
    57   30   31 2
    58   31   32 1
    59   31   62 1
    60   32   37 ar
    61   32   33 ar
    62   33   34 ar
    63   33   63 1
    64   34   35 ar
    65   34   64 1
    66   35   36 ar
    67   35   65 1
    68   36   37 ar
    69   36   66 1
    70   37   38 1
@<TRIPOS>MOLECULE
ZINC40052996
   69    72     0     0     0
SMALL
USER_CHARGES

@<TRIPOS>ATOM
      1 C1          0.2729    1.2629   -1.3807 C.3       1 <0>        -0.1506
      2 C2          0.3550   -0.2533   -1.1924 C.3       1 <0>        -0.1227
      3 C3          0.8980   -0.5652    0.2036 C.3       1 <0>        -0.1166
      4 C4          0.9802   -2.0813    0.3919 C.3       1 <0>         0.0575
      5 O1          1.4873   -2.3726    1.6957 O.3       1 <0>        -0.3079
      6 C5          1.6234   -3.6847    2.0263 C.ar      1 <0>         0.0948
      7 C6          1.2819   -4.6697    1.1136 C.ar      1 <0>        -0.1712
      8 C7          1.4213   -6.0031    1.4511 C.ar      1 <0>        -0.0766
      9 C8          1.9008   -6.3571    2.6986 C.ar      1 <0>        -0.0707
     10 C9          2.2429   -5.3793    3.6140 C.ar      1 <0>        -0.1651
     11 C10         2.1114   -4.0409    3.2798 C.ar      1 <0>         0.0956
     12 O2          2.4533   -3.0778    4.1770 O.3       1 <0>        -0.3081
     13 C11         3.0409   -3.5137    5.4045 C.3       1 <0>         0.0533
     14 C12         3.2593   -2.3087    6.3216 C.3       1 <0>        -0.1489
     15 C13         2.0503   -7.8121    3.0614 C.3       1 <0>         0.2649
     16 H1          2.2831   -7.9115    4.1216 H         1 <0>         0.0704
     17 C14         3.1400   -8.4458    2.2286 C.2       1 <0>        -0.4985
     18 C15         2.5587   -9.4373    1.5140 C.2       1 <0>         0.2669
     19 C16         1.1180   -9.4897    1.8391 C.2       1 <0>         0.5117
     20 O3          0.3232  -10.2742    1.3604 O.2       1 <0>        -0.5334
     21 N1          0.8160   -8.5404    2.7453 N.am      1 <0>        -0.6111
     22 C17        -0.5087   -8.2797    3.3143 C.3       1 <0>         0.1432
     23 C18        -1.2453   -7.2588    2.4448 C.3       1 <0>        -0.1464
     24 C19        -2.6286   -6.9866    3.0390 C.3       1 <0>         0.0815
     25 O4         -3.3166   -6.0331    2.2269 O.3       1 <0>        -0.5721
     26 O5          3.1954  -10.2510    0.6404 O.3       1 <0>        -0.6481
     27 C20         4.5544   -8.0604    2.1995 C.2       1 <0>         0.5025
     28 O6          5.0593   -7.6767    1.1607 O.2       1 <0>        -0.4715
     29 C21         5.3659   -8.1379    3.4300 C.ar      1 <0>        -0.1295
     30 C22         4.8233   -8.6900    4.5942 C.ar      1 <0>        -0.0613
     31 C23         5.5825   -8.7600    5.7406 C.ar      1 <0>        -0.1295
     32 C24         6.8890   -8.2835    5.7463 C.ar      1 <0>         0.0612
     33 C25         7.4366   -7.7343    4.5889 C.ar      1 <0>         0.0326
     34 C26         6.6810   -7.6647    3.4334 C.ar      1 <0>        -0.0665
     35 O7          8.7165   -7.2707    4.5764 O.3       1 <0>        -0.3071
     36 C27         9.3227   -7.0209    5.8492 C.3       1 <0>         0.0209
     37 C28         9.0373   -8.2219    6.7610 C.3       1 <0>         0.0203
     38 O8          7.6184   -8.3592    6.8911 O.3       1 <0>        -0.3079
     39 H2          1.2668    1.6969   -1.2722 H         1 <0>         0.0549
     40 H3         -0.1140    1.4850   -2.3753 H         1 <0>         0.0551
     41 H4         -0.3928    1.6868   -0.6289 H         1 <0>         0.0545
     42 H5         -0.6389   -0.6873   -1.3010 H         1 <0>         0.0647
     43 H6          1.0207   -0.6772   -1.9443 H         1 <0>         0.0650
     44 H7          1.8920   -0.1311    0.3121 H         1 <0>         0.0719
     45 H8          0.2323   -0.1412    0.9554 H         1 <0>         0.0715
     46 H9         -0.0138   -2.5153    0.2833 H         1 <0>         0.0596
     47 H10         1.6459   -2.5052   -0.3600 H         1 <0>         0.0597
     48 H11         0.9064   -4.3959    0.1387 H         1 <0>         0.1294
     49 H12         1.1547   -6.7699    0.7388 H         1 <0>         0.1222
     50 H13         2.6169   -5.6585    4.5879 H         1 <0>         0.1312
     51 H14         2.3760   -4.2261    5.8928 H         1 <0>         0.0592
     52 H15         3.9984   -3.9923    5.1991 H         1 <0>         0.0600
     53 H16         3.7075   -2.6412    7.2579 H         1 <0>         0.0744
     54 H17         3.9242   -1.5962    5.8333 H         1 <0>         0.0641
     55 H18         2.3017   -1.8301    6.5270 H         1 <0>         0.0635
     56 H19        -1.0791   -9.2080    3.3470 H         1 <0>         0.0790
     57 H20        -0.3990   -7.8849    4.3243 H         1 <0>         0.0752
     58 H21        -0.6748   -6.3306    2.4121 H         1 <0>         0.0823
     59 H22        -1.3550   -7.6536    1.4348 H         1 <0>         0.0726
     60 H23        -3.1991   -7.9148    3.0717 H         1 <0>         0.0447
     61 H24        -2.5190   -6.5918    4.0490 H         1 <0>         0.0439
     62 H25        -4.2028   -5.8123    2.5448 H         1 <0>         0.3749
     63 H26         3.8091   -9.0612    4.5943 H         1 <0>         0.1448
     64 H27         5.1616   -9.1864    6.6391 H         1 <0>         0.1353
     65 H28         7.1052   -7.2411    2.5350 H         1 <0>         0.1413
     66 H29        10.3990   -6.9000    5.7265 H         1 <0>         0.1187
     67 H30         8.8984   -6.1176    6.2875 H         1 <0>         0.0749
     68 H31         9.4551   -9.1264    6.3189 H         1 <0>         0.0765
     69 H32         9.4817   -8.0525    7.7418 H         1 <0>         0.1189
@<TRIPOS>BOND
     1    1    2 1
     2    1   39 1
     3    1   40 1
     4    1   41 1
     5    2    3 1
     6    2   42 1
     7    2   43 1
     8    3    4 1
     9    3   44 1
    10    3   45 1
    11    4    5 1
    12    4   46 1
    13    4   47 1
    14    5    6 1
    15    6   11 ar
    16    6    7 ar
    17    7    8 ar
    18    7   48 1
    19    8    9 ar
    20    8   49 1
    21    9   10 ar
    22    9   15 1
    23   10   11 ar
    24   10   50 1
    25   11   12 1
    26   12   13 1
    27   13   14 1
    28   13   51 1
    29   13   52 1
    30   14   53 1
    31   14   54 1
    32   14   55 1
    33   15   16 1
    34   15   21 1
    35   15   17 1
    36   17   18 2
    37   17   27 1
    38   18   19 1
    39   18   26 1
    40   19   20 2
    41   19   21 am
    42   21   22 1
    43   22   23 1
    44   22   56 1
    45   22   57 1
    46   23   24 1
    47   23   58 1
    48   23   59 1
    49   24   25 1
    50   24   60 1
    51   24   61 1
    52   25   62 1
    53   27   28 2
    54   27   29 1
    55   29   34 ar
    56   29   30 ar
    57   30   31 ar
    58   30   63 1
    59   31   32 ar
    60   31   64 1
    61   32   38 1
    62   32   33 ar
    63   33   34 ar
    64   33   35 1
    65   34   65 1
    66   35   36 1
    67   36   37 1
    68   36   66 1
    69   36   67 1
    70   37   38 1
    71   37   68 1
    72   37   69 1
@<TRIPOS>MOLECULE
ZINC40083077
   70    72     0     0     0
SMALL
USER_CHARGES

@<TRIPOS>ATOM
      1 C1          3.1405   -2.1281    3.7612 C.3       1 <0>        -0.1157
      2 C2          2.2096   -2.2711    2.5848 C.ar      1 <0>        -0.0229
      3 C3          2.5552   -3.0814    1.5267 C.ar      1 <0>        -0.1562
      4 C4          1.6974   -3.2136    0.4406 C.ar      1 <0>         0.1256
      5 C5          0.4870   -2.5290    0.4182 C.ar      1 <0>        -0.2092
      6 C6          0.1338   -1.7169    1.4718 C.ar      1 <0>        -0.0437
      7 C7          0.9912   -1.5856    2.5688 C.ar      1 <0>        -0.1362
      8 C8          0.6136   -0.7209    3.7040 C.2       1 <0>         0.4678
      9 O1          0.6934    0.4890    3.6002 O.2       1 <0>        -0.4890
     10 C9          0.1423   -1.3198    4.9568 C.2       1 <0>        -0.4772
     11 C10        -0.1476   -0.6654    6.1052 C.2       1 <0>         0.2780
     12 C11        -0.5883   -1.6424    7.1229 C.2       1 <0>         0.5074
     13 O2         -0.9191   -1.3649    8.2586 O.2       1 <0>        -0.5372
     14 N1         -0.5695   -2.8842    6.6057 N.am      1 <0>        -0.6033
     15 C12        -0.1194   -2.7858    5.2123 C.3       1 <0>         0.2554
     16 H1          0.7973   -3.3595    5.0756 H         1 <0>         0.0655
     17 C13        -1.1913   -3.2907    4.2811 C.ar      1 <0>        -0.0432
     18 C14        -2.4003   -2.6256    4.1960 C.ar      1 <0>        -0.0634
     19 C15        -3.3868   -3.0849    3.3434 C.ar      1 <0>        -0.1778
     20 C16        -3.1648   -4.2139    2.5713 C.ar      1 <0>         0.0920
     21 C17        -1.9477   -4.8830    2.6567 C.ar      1 <0>         0.1076
     22 C18        -0.9614   -4.4147    3.5098 C.ar      1 <0>        -0.1470
     23 O3         -1.7251   -5.9916    1.9010 O.3       1 <0>        -0.3108
     24 C19        -0.4914   -6.6819    2.1096 C.3       1 <0>         0.0313
     25 O4         -4.1344   -4.6672    1.7324 O.3       1 <0>        -0.3067
     26 C20        -5.3117   -3.8668    1.6088 C.3       1 <0>         0.0835
     27 C21        -6.3047   -4.5679    0.7181 C.2       1 <0>        -0.1469
     28 C22        -7.5663   -4.6300    1.0652 C.2       1 <0>        -0.1799
     29 C23        -0.9388   -4.1161    7.3074 C.3       1 <0>         0.1420
     30 C24        -2.4621   -4.1996    7.4239 C.3       1 <0>         0.0432
     31 O5         -3.0138   -4.6101    6.1712 O.3       1 <0>        -0.3545
     32 C25        -4.4195   -4.8643    6.2106 C.3       1 <0>         0.0654
     33 C26        -4.8731   -5.4310    4.8638 C.3       1 <0>         0.0665
     34 O6         -4.2453   -6.6956    4.6433 O.3       1 <0>        -0.5572
     35 O7         -0.0493    0.6710    6.2923 O.3       1 <0>        -0.6121
     36 O8          2.0422   -4.0125   -0.6006 O.3       1 <0>        -0.3138
     37 C27         1.1713   -4.0137   -1.7335 C.3       1 <0>         0.0866
     38 C28         1.7708   -4.8598   -2.8271 C.2       1 <0>        -0.1522
     39 C29         1.0218   -5.7137   -3.4797 C.2       1 <0>        -0.1753
     40 H2          2.8512   -2.8325    4.5411 H         1 <0>         0.0762
     41 H3          4.1621   -2.3370    3.4437 H         1 <0>         0.0632
     42 H4          3.0814   -1.1115    4.1498 H         1 <0>         0.0744
     43 H5          3.4942   -3.6147    1.5402 H         1 <0>         0.1266
     44 H6         -0.1765   -2.6344   -0.4274 H         1 <0>         0.1211
     45 H7         -0.8061   -1.1853    1.4535 H         1 <0>         0.1200
     46 H8         -2.5746   -1.7455    4.7972 H         1 <0>         0.1151
     47 H9         -4.3307   -2.5639    3.2793 H         1 <0>         0.1203
     48 H10        -0.0145   -4.9300    3.5751 H         1 <0>         0.1224
     49 H11         0.3400   -5.9925    1.9632 H         1 <0>         0.0522
     50 H12        -0.4626   -7.0753    3.1258 H         1 <0>         0.0513
     51 H13        -0.4108   -7.5046    1.3991 H         1 <0>         0.0902
     52 H14        -5.7521   -3.7138    2.5941 H         1 <0>         0.0610
     53 H15        -5.0511   -2.9020    1.1736 H         1 <0>         0.0693
     54 H16        -5.9761   -5.0193   -0.2065 H         1 <0>         0.1184
     55 H17        -8.2779   -5.1324    0.4268 H         1 <0>         0.1053
     56 H18        -7.8948   -4.1786    1.9897 H         1 <0>         0.0978
     57 H19        -0.5693   -4.9766    6.7497 H         1 <0>         0.0879
     58 H20        -0.4979   -4.1125    8.3042 H         1 <0>         0.0857
     59 H21        -2.7285   -4.9244    8.1932 H         1 <0>         0.0513
     60 H22        -2.8601   -3.2212    7.6931 H         1 <0>         0.0542
     61 H23        -4.6365   -5.5844    6.9995 H         1 <0>         0.0464
     62 H24        -4.9514   -3.9342    6.4111 H         1 <0>         0.0538
     63 H25        -5.9556   -5.5588    4.8694 H         1 <0>         0.0437
     64 H26        -4.5928   -4.7423    4.0668 H         1 <0>         0.0713
     65 H27        -4.5493   -7.1522    3.8469 H         1 <0>         0.3733
     66 H28         0.2027   -4.4234   -1.4468 H         1 <0>         0.0677
     67 H29         1.0419   -2.9930   -2.0935 H         1 <0>         0.0702
     68 H30         2.8179   -4.7622   -3.0727 H         1 <0>         0.1178
     69 H31        -0.0254   -5.8113   -3.2341 H         1 <0>         0.0999
     70 H32         1.4514   -6.3201   -4.2634 H         1 <0>         0.1055
@<TRIPOS>BOND
     1    1    2 1
     2    1   40 1
     3    1   41 1
     4    1   42 1
     5    2    7 ar
     6    2    3 ar
     7    3    4 ar
     8    3   43 1
     9    4    5 ar
    10    4   36 1
    11    5    6 ar
    12    5   44 1
    13    6    7 ar
    14    6   45 1
    15    7    8 1
    16    8    9 2
    17    8   10 1
    18   10   15 1
    19   10   11 2
    20   11   12 1
    21   11   35 1
    22   12   13 2
    23   12   14 am
    24   14   15 1
    25   14   29 1
    26   15   16 1
    27   15   17 1
    28   17   22 ar
    29   17   18 ar
    30   18   19 ar
    31   18   46 1
    32   19   20 ar
    33   19   47 1
    34   20   21 ar
    35   20   25 1
    36   21   22 ar
    37   21   23 1
    38   22   48 1
    39   23   24 1
    40   24   49 1
    41   24   50 1
    42   24   51 1
    43   25   26 1
    44   26   27 1
    45   26   52 1
    46   26   53 1
    47   27   28 2
    48   27   54 1
    49   28   55 1
    50   28   56 1
    51   29   30 1
    52   29   57 1
    53   29   58 1
    54   30   31 1
    55   30   59 1
    56   30   60 1
    57   31   32 1
    58   32   33 1
    59   32   61 1
    60   32   62 1
    61   33   34 1
    62   33   63 1
    63   33   64 1
    64   34   65 1
    65   36   37 1
    66   37   38 1
    67   37   66 1
    68   37   67 1
    69   38   39 2
    70   38   68 1
    71   39   69 1
    72   39   70 1
@<TRIPOS>MOLECULE
ZINC40097910
   54    57     0     0     0
SMALL
USER_CHARGES

@<TRIPOS>ATOM
      1 C1         -5.3428   -7.1751    3.5799 C.3       1 <0>         0.0277
      2 O1         -4.1972   -6.8988    2.7715 O.3       1 <0>        -0.3084
      3 C2         -2.9829   -6.9611    3.3799 C.ar      1 <0>         0.1459
      4 C3         -2.8947   -7.2860    4.7213 C.ar      1 <0>        -0.1975
      5 C4         -1.6615   -7.3525    5.3544 C.ar      1 <0>        -0.1035
      6 C5         -0.5119   -7.0977    4.6616 C.ar      1 <0>        -0.1051
      7 C6         -0.5770   -6.7677    3.3042 C.ar      1 <0>        -0.0981
      8 C7         -1.8220   -6.7034    2.6524 C.ar      1 <0>         0.0353
      9 O2         -1.5931   -6.3753    1.3651 O.3       1 <0>        -0.1448
     10 C8         -0.2722   -6.2269    1.1351 C.2       1 <0>         0.0208
     11 C9          0.4207   -6.4437    2.2865 C.2       1 <0>        -0.1698
     12 C10         0.3266   -5.8714   -0.1584 C.2       1 <0>         0.5554
     13 O3          1.5251   -5.6699   -0.2399 O.2       1 <0>        -0.4471
     14 C11        -0.5189   -5.7589   -1.3519 C.2       1 <0>        -0.5038
     15 C12        -1.0342   -6.7801   -2.0750 C.2       1 <0>         0.2650
     16 C13        -1.8267   -6.2313   -3.1941 C.2       1 <0>         0.5146
     17 O4         -2.4162   -6.8962   -4.0229 O.2       1 <0>        -0.5376
     18 N1         -1.7997   -4.8866   -3.1603 N.am      1 <0>        -0.6048
     19 C14        -0.9876   -4.4807   -2.0071 C.3       1 <0>         0.2666
     20 H1         -1.5895   -3.9001   -1.3080 H         1 <0>         0.0929
     21 C15         0.1962   -3.6710   -2.4696 C.ar      1 <0>        -0.0336
     22 C16         0.6721   -3.8169   -3.7593 C.ar      1 <0>        -0.1034
     23 C17         1.7576   -3.0739   -4.1838 C.ar      1 <0>        -0.1055
     24 C18         2.3680   -2.1846   -3.3188 C.ar      1 <0>        -0.1289
     25 C19         1.8929   -2.0381   -2.0293 C.ar      1 <0>        -0.0904
     26 C20         0.8032   -2.7777   -1.6056 C.ar      1 <0>        -0.0746
     27 Br1         0.1483   -2.5726    0.1564 Br        1 <0>        -0.0550
     28 C21        -2.4668   -3.9868   -4.1046 C.3       1 <0>         0.1373
     29 C22        -3.8757   -3.6703   -3.5988 C.3       1 <0>         0.0441
     30 O5         -3.7891   -2.9375   -2.3751 O.3       1 <0>        -0.3673
     31 C23        -5.0569   -2.5897   -1.8149 C.3       1 <0>         0.0635
     32 C24        -4.8438   -1.8121   -0.5146 C.3       1 <0>         0.0785
     33 O6         -4.2038   -0.5674   -0.8033 O.3       1 <0>        -0.5635
     34 O7         -0.8517   -8.0957   -1.8146 O.3       1 <0>        -0.6587
     35 H2         -5.3894   -6.4595    4.4007 H         1 <0>         0.0545
     36 H3         -6.2444   -7.0913    2.9731 H         1 <0>         0.0996
     37 H4         -5.2684   -8.1853    3.9824 H         1 <0>         0.0557
     38 H5         -3.7949   -7.4897    5.2821 H         1 <0>         0.1360
     39 H6         -1.6102   -7.6073    6.4026 H         1 <0>         0.1284
     40 H7          0.4443   -7.1506    5.1608 H         1 <0>         0.1281
     41 H8          1.4917   -6.3980    2.4184 H         1 <0>         0.1662
     42 H9          0.1958   -4.5117   -4.4352 H         1 <0>         0.1252
     43 H10         2.1293   -3.1884   -5.1913 H         1 <0>         0.1224
     44 H11         3.2163   -1.6045   -3.6507 H         1 <0>         0.1238
     45 H12         2.3698   -1.3435   -1.3537 H         1 <0>         0.1260
     46 H13        -1.8956   -3.0625   -4.1910 H         1 <0>         0.0850
     47 H14        -2.5306   -4.4671   -5.0809 H         1 <0>         0.0950
     48 H15        -4.4034   -3.0738   -4.3430 H         1 <0>         0.0552
     49 H16        -4.4178   -4.6004   -3.4277 H         1 <0>         0.0538
     50 H17        -5.6091   -1.9707   -2.5221 H         1 <0>         0.0509
     51 H18        -5.6234   -3.4973   -1.6068 H         1 <0>         0.0604
     52 H19        -5.8077   -1.6239   -0.0417 H         1 <0>         0.0553
     53 H20        -4.2164   -2.3956    0.1591 H         1 <0>         0.0573
     54 H21        -4.0371   -0.0207   -0.0233 H         1 <0>         0.3753
@<TRIPOS>BOND
     1    1    2 1
     2    1   35 1
     3    1   36 1
     4    1   37 1
     5    2    3 1
     6    3    8 ar
     7    3    4 ar
     8    4    5 ar
     9    4   38 1
    10    5    6 ar
    11    5   39 1
    12    6    7 ar
    13    6   40 1
    14    7   11 1
    15    7    8 ar
    16    8    9 1
    17    9   10 1
    18   10   11 2
    19   10   12 1
    20   11   41 1
    21   12   13 2
    22   12   14 1
    23   14   19 1
    24   14   15 2
    25   15   16 1
    26   15   34 1
    27   16   17 2
    28   16   18 am
    29   18   19 1
    30   18   28 1
    31   19   20 1
    32   19   21 1
    33   21   26 ar
    34   21   22 ar
    35   22   23 ar
    36   22   42 1
    37   23   24 ar
    38   23   43 1
    39   24   25 ar
    40   24   44 1
    41   25   26 ar
    42   25   45 1
    43   26   27 1
    44   28   29 1
    45   28   46 1
    46   28   47 1
    47   29   30 1
    48   29   48 1
    49   29   49 1
    50   30   31 1
    51   31   32 1
    52   31   50 1
    53   31   51 1
    54   32   33 1
    55   32   52 1
    56   32   53 1
    57   33   54 1
@<TRIPOS>MOLECULE
ZINC03601316
   36    38     0     0     0
SMALL
USER_CHARGES
2-[[5-(2-furyl)-4-methyl-1,2,4-triazol-3-yl]sulfanyl]-N-(2-iodophenyl)-acetamide
@<TRIPOS>ATOM
      1 C1         -2.9586    0.8236    0.6461 C.3       1 <0>         0.0699
      2 N1         -2.4791   -0.5084    0.2692 N.pl3     1 <0>        -0.4562
      3 C2         -1.1866   -0.8715   -0.0399 C.2       1 <0>         0.2619
      4 N2         -1.2054   -2.1555   -0.3237 N.2       1 <0>        -0.2482
      5 N3         -2.4005   -2.6130   -0.2064 N.2       1 <0>        -0.2841
      6 C3         -3.2207   -1.6504    0.1503 C.2       1 <0>         0.1456
      7 S1         -4.9546   -1.8033    0.4241 S.3       1 <0>         0.0979
      8 C4         -5.1735   -3.5660    0.0765 C.3       1 <0>        -0.1528
      9 C5         -6.6236   -3.9365    0.2523 C.2       1 <0>         0.5398
     10 O1         -7.4298   -3.0917    0.5803 O.2       1 <0>        -0.4991
     11 N4         -7.0247   -5.2064    0.0451 N.am      1 <0>        -0.6672
     12 C6         -8.3515   -5.5714    0.2992 C.ar      1 <0>         0.1752
     13 C7         -9.3796   -4.6691    0.0595 C.ar      1 <0>        -0.1154
     14 C8        -10.6884   -5.0340    0.3068 C.ar      1 <0>        -0.0816
     15 C9        -10.9753   -6.2928    0.8026 C.ar      1 <0>        -0.1264
     16 C10        -9.9539   -7.1920    1.0474 C.ar      1 <0>        -0.0675
     17 C11        -8.6426   -6.8350    0.7972 C.ar      1 <0>        -0.1285
     18 I1         -7.0955   -8.1978    1.1691 I         1 <0>        -0.0340
     19 C12        -0.0098    0.0111   -0.0557 C.2       1 <0>         0.0336
     20 C13         1.2920   -0.3913   -0.0784 C.2       1 <0>        -0.1306
     21 C14         2.0773    0.7776   -0.0872 C.2       1 <0>        -0.2116
     22 C15         1.2288    1.8247   -0.0697 C.2       1 <0>        -0.0128
     23 O2         -0.0309    1.3586   -0.0507 O.3       1 <0>        -0.1747
     24 H1         -3.2533    1.3706   -0.2496 H         1 <0>         0.0916
     25 H2         -3.8168    0.7262    1.3110 H         1 <0>         0.0983
     26 H3         -2.1626    1.3652    1.1571 H         1 <0>         0.0997
     27 H4         -4.8667   -3.7752   -0.9483 H         1 <0>         0.1352
     28 H5         -4.5631   -4.1506    0.7649 H         1 <0>         0.1357
     29 H6         -6.3936   -5.8673   -0.2802 H         1 <0>         0.4163
     30 H7         -9.1562   -3.6844   -0.3238 H         1 <0>         0.1488
     31 H8        -11.4886   -4.3339    0.1170 H         1 <0>         0.1352
     32 H9        -11.9993   -6.5740    0.9993 H         1 <0>         0.1345
     33 H10       -10.1811   -8.1741    1.4349 H         1 <0>         0.1348
     34 H11         1.6517   -1.4096   -0.0882 H         1 <0>         0.1628
     35 H12         3.1561    0.8259   -0.1051 H         1 <0>         0.1602
     36 H13         1.5145    2.8663   -0.0708 H         1 <0>         0.2136
@<TRIPOS>BOND
     1    1    2 1
     2    1   24 1
     3    1   25 1
     4    1   26 1
     5    2    6 1
     6    2    3 1
     7    3    4 2
     8    3   19 1
     9    4    5 1
    10    5    6 2
    11    6    7 1
    12    7    8 1
    13    8    9 1
    14    8   27 1
    15    8   28 1
    16    9   10 2
    17    9   11 am
    18   11   12 1
    19   11   29 1
    20   12   17 ar
    21   12   13 ar
    22   13   14 ar
    23   13   30 1
    24   14   15 ar
    25   14   31 1
    26   15   16 ar
    27   15   32 1
    28   16   17 ar
    29   16   33 1
    30   17   18 1
    31   19   23 1
    32   19   20 2
    33   20   21 1
    34   20   34 1
    35   21   22 2
    36   21   35 1
    37   22   23 1
    38   22   36 1
@<TRIPOS>MOLECULE
ZINC13296334
   44    47     0     0     0
SMALL
USER_CHARGES
N-(2,6-difluorophenyl)-2-[[7-(4-fluorophenyl)-3,5,7,8-tetrazabicyclo[4.3.0]nona-2,4,8,10-tetraen-2-yl]sulfanyl]propanamide
@<TRIPOS>ATOM
      1 C1         -3.2720    3.0600   -0.3692 C.3       1 <0>        -0.1444
      2 C2         -3.1368    1.5544   -0.6055 C.3       1 <0>        -0.1115
      3 H1         -2.5180    1.1177    0.1784 H         1 <0>         0.1309
      4 C3         -4.5024    0.9174   -0.5808 C.2       1 <0>         0.5411
      5 O1         -5.0657    0.6499   -1.6211 O.2       1 <0>        -0.5025
      6 N1         -5.0977    0.6451    0.5973 N.am      1 <0>        -0.6727
      7 C4         -6.4094    0.1516    0.6222 C.ar      1 <0>         0.0586
      8 C5         -7.4842    1.0317    0.6662 C.ar      1 <0>         0.1400
      9 C6         -8.7775    0.5409    0.6853 C.ar      1 <0>        -0.1586
     10 C7         -9.0013   -0.8235    0.6712 C.ar      1 <0>        -0.0499
     11 C8         -7.9346   -1.7023    0.6332 C.ar      1 <0>        -0.1586
     12 C9         -6.6385   -1.2192    0.6086 C.ar      1 <0>         0.1418
     13 F1         -5.5968   -2.0787    0.5719 F         1 <0>        -0.1218
     14 F2         -7.2663    2.3649    0.6852 F         1 <0>        -0.1222
     15 S1         -2.3644    1.2634   -2.2163 S.3       1 <0>         0.0690
     16 C10        -0.7725    1.9591   -1.9225 C.ar      1 <0>         0.2335
     17 C11         0.2113    1.9628   -2.9315 C.ar      1 <0>        -0.2617
     18 C12         0.2667    1.5048   -4.2654 C.2       1 <0>         0.1163
     19 N2          1.4486    1.7712   -4.7456 N.2       1 <0>        -0.2304
     20 N3          2.2224    2.4092   -3.7679 N.pl3     1 <0>        -0.3287
     21 C13         1.4650    2.5334   -2.6382 C.ar      1 <0>         0.3601
     22 N4          1.6708    3.0441   -1.4253 N.ar      1 <0>        -0.5358
     23 C14         0.7213    3.0179   -0.5157 C.ar      1 <0>         0.3637
     24 N5         -0.4700    2.4939   -0.7437 N.ar      1 <0>        -0.5524
     25 C15         3.5452    2.8454   -3.9223 C.ar      1 <0>         0.1411
     26 C16         3.9709    4.0095   -3.2966 C.ar      1 <0>        -0.0812
     27 C17         5.2761    4.4353   -3.4465 C.ar      1 <0>        -0.1323
     28 C18         6.1574    3.7074   -4.2284 C.ar      1 <0>         0.1030
     29 C19         5.7335    2.5487   -4.8572 C.ar      1 <0>        -0.1356
     30 C20         4.4304    2.1170   -4.7059 C.ar      1 <0>        -0.0797
     31 F3          7.4323    4.1286   -4.3783 F         1 <0>        -0.1325
     32 H2         -2.2842    3.5206   -0.3871 H         1 <0>         0.0955
     33 H3         -3.8908    3.4966   -1.1531 H         1 <0>         0.0702
     34 H4         -3.7371    3.2352    0.6009 H         1 <0>         0.0740
     35 H5         -4.6184    0.7905    1.4280 H         1 <0>         0.4166
     36 H6         -9.6133    1.2242    0.7150 H         1 <0>         0.1503
     37 H7        -10.0120   -1.2037    0.6903 H         1 <0>         0.1508
     38 H8         -8.1134   -2.7674    0.6223 H         1 <0>         0.1503
     39 H9         -0.5351    1.0154   -4.7982 H         1 <0>         0.2094
     40 H10         0.9236    3.4415    0.4569 H         1 <0>         0.2107
     41 H11         3.2828    4.5797   -2.6901 H         1 <0>         0.1448
     42 H12         5.6086    5.3389   -2.9572 H         1 <0>         0.1481
     43 H13         6.4222    1.9824   -5.4665 H         1 <0>         0.1479
     44 H14         4.1000    1.2136   -5.1970 H         1 <0>         0.1448
@<TRIPOS>BOND
     1    1    2 1
     2    1   32 1
     3    1   33 1
     4    1   34 1
     5    2    3 1
     6    2    4 1
     7    2   15 1
     8    4    5 2
     9    4    6 am
    10    6    7 1
    11    6   35 1
    12    7   12 ar
    13    7    8 ar
    14    8    9 ar
    15    8   14 1
    16    9   10 ar
    17    9   36 1
    18   10   11 ar
    19   10   37 1
    20   11   12 ar
    21   11   38 1
    22   12   13 1
    23   15   16 1
    24   16   24 ar
    25   16   17 ar
    26   17   21 ar
    27   17   18 1
    28   18   19 2
    29   18   39 1
    30   19   20 1
    31   20   21 1
    32   20   25 1
    33   21   22 ar
    34   22   23 ar
    35   23   24 ar
    36   23   40 1
    37   25   30 ar
    38   25   26 ar
    39   26   27 ar
    40   26   41 1
    41   27   28 ar
    42   27   42 1
    43   28   29 ar
    44   28   31 1
    45   29   30 ar
    46   29   43 1
    47   30   44 1
@<TRIPOS>MOLECULE
ZINC22329332
   60    62     0     0     0
SMALL
USER_CHARGES
2-[(3,5-dimethylphenyl)-methylsulfonyl-amino]-N-[(4S)-2,2,6-trimethylchroman-4-yl]acetamide
@<TRIPOS>ATOM
      1 C1          3.0180    0.6440    0.3626 C.3       1 <0>        -0.1114
      2 C2          1.7965    1.5098    0.1909 C.ar      1 <0>        -0.1189
      3 C3          1.9222    2.8868    0.1698 C.ar      1 <0>        -0.0829
      4 C4          0.8030    3.6786    0.0151 C.ar      1 <0>        -0.1531
      5 C5         -0.4535    3.0961   -0.1206 C.ar      1 <0>         0.1354
      6 C6         -0.5750    1.7178   -0.1083 C.ar      1 <0>        -0.1773
      7 C7          0.5513    0.9283    0.0550 C.ar      1 <0>        -0.0683
      8 C8         -1.9166    1.0461   -0.2567 C.3       1 <0>         0.1962
      9 H1         -2.0093    0.6292   -1.2704 H         1 <0>         0.1011
     10 C9         -3.0335    2.0543    0.0248 C.3       1 <0>        -0.1519
     11 C10        -2.7388    3.3337   -0.7686 C.3       1 <0>         0.1209
     12 O1         -1.5325    3.9087   -0.2645 O.3       1 <0>        -0.3085
     13 C11        -3.8925    4.3237   -0.5970 C.3       1 <0>        -0.1407
     14 C12        -2.5672    2.9931   -2.2504 C.3       1 <0>        -0.1820
     15 N1         -2.0154   -0.0678    0.6896 N.am      1 <0>        -0.7338
     16 C13        -1.5128   -1.2753    0.3641 C.2       1 <0>         0.5007
     17 O2         -0.9787   -1.4396   -0.7124 O.2       1 <0>        -0.5155
     18 C14        -1.6145   -2.4212    1.3375 C.3       1 <0>         0.1014
     19 N2         -0.9989   -3.6149    0.7526 N.pl3     1 <0>        -0.9296
     20 C15        -1.7430   -4.4419   -0.0920 C.ar      1 <0>         0.1392
     21 C16        -2.8839   -5.0762    0.3830 C.ar      1 <0>        -0.1304
     22 C17        -3.6200   -5.8894   -0.4561 C.ar      1 <0>        -0.0781
     23 C18        -3.2167   -6.0808   -1.7649 C.ar      1 <0>        -0.1150
     24 C19        -2.0786   -5.4550   -2.2396 C.ar      1 <0>        -0.0725
     25 C20        -1.3407   -4.6363   -1.4073 C.ar      1 <0>        -0.0857
     26 C21        -1.6426   -5.6669   -3.6665 C.3       1 <0>        -0.1185
     27 C22        -4.8610   -6.5735    0.0567 C.3       1 <0>        -0.1157
     28 S1          0.5792   -3.9839    1.0927 S.o2      1 <0>         2.5982
     29 O3          0.9834   -4.8512    0.0421 O.2       1 <0>        -0.9360
     30 O4          1.2138   -2.7261    1.2784 O.2       1 <0>        -0.9396
     31 C23         0.5180   -4.8907    2.6627 C.3       1 <0>        -0.6766
     32 H2          3.9096    1.2818    0.4540 H         1 <0>         0.0612
     33 H3          3.1264   -0.0147   -0.5117 H         1 <0>         0.0666
     34 H4          2.9096    0.0330    1.2708 H         1 <0>         0.0718
     35 H5          2.8959    3.3422    0.2748 H         1 <0>         0.1267
     36 H6          0.9023    4.7539   -0.0005 H         1 <0>         0.1287
     37 H7          0.4557   -0.1473    0.0717 H         1 <0>         0.1385
     38 H8         -3.9984    1.6296   -0.2891 H         1 <0>         0.0907
     39 H9         -3.0638    2.2768    1.1016 H         1 <0>         0.0850
     40 H10        -3.6776    5.2395   -1.1672 H         1 <0>         0.0711
     41 H11        -4.0062    4.5732    0.4683 H         1 <0>         0.0683
     42 H12        -4.8232    3.8702   -0.9688 H         1 <0>         0.0797
     43 H13        -2.3561    3.9127   -2.8159 H         1 <0>         0.0705
     44 H14        -3.4913    2.5330   -2.6303 H         1 <0>         0.0744
     45 H15        -1.7308    2.2888   -2.3702 H         1 <0>         0.0664
     46 H16        -2.4998    0.0812    1.6659 H         1 <0>         0.4208
     47 H17        -1.0921   -2.1583    2.2692 H         1 <0>         0.1153
     48 H18        -2.6734   -2.6242    1.5556 H         1 <0>         0.1165
     49 H19        -3.1969   -4.9307    1.4064 H         1 <0>         0.1252
     50 H20        -3.7917   -6.7208   -2.4178 H         1 <0>         0.1244
     51 H21        -0.4522   -4.1476   -1.7787 H         1 <0>         0.1324
     52 H22        -0.7243   -5.0926   -3.8584 H         1 <0>         0.0685
     53 H23        -2.4369   -5.3264   -4.3470 H         1 <0>         0.0709
     54 H24        -1.4484   -6.7363   -3.8356 H         1 <0>         0.0726
     55 H25        -5.3086   -7.1734   -0.7494 H         1 <0>         0.0672
     56 H26        -5.5838   -5.8164    0.3950 H         1 <0>         0.0696
     57 H27        -4.5964   -7.2300    0.8987 H         1 <0>         0.0702
     58 H28         1.5376   -5.1753    2.9617 H         1 <0>         0.1339
     59 H29        -0.0942   -5.7963    2.5394 H         1 <0>         0.1321
     60 H30         0.0735   -4.2504    3.4388 H         1 <0>         0.1295
@<TRIPOS>BOND
     1    1    2 1
     2    1   32 1
     3    1   33 1
     4    1   34 1
     5    2    7 ar
     6    2    3 ar
     7    3    4 ar
     8    3   35 1
     9    4    5 ar
    10    4   36 1
    11    5   12 1
    12    5    6 ar
    13    6    7 ar
    14    6    8 1
    15    7   37 1
    16    8    9 1
    17    8   10 1
    18    8   15 1
    19   10   11 1
    20   10   38 1
    21   10   39 1
    22   11   12 1
    23   11   13 1
    24   11   14 1
    25   13   40 1
    26   13   41 1
    27   13   42 1
    28   14   43 1
    29   14   44 1
    30   14   45 1
    31   15   16 am
    32   15   46 1
    33   16   17 2
    34   16   18 1
    35   18   19 1
    36   18   47 1
    37   18   48 1
    38   19   20 1
    39   19   28 1
    40   20   25 ar
    41   20   21 ar
    42   21   22 ar
    43   21   49 1
    44   22   23 ar
    45   22   27 1
    46   23   24 ar
    47   23   50 1
    48   24   25 ar
    49   24   26 1
    50   25   51 1
    51   26   52 1
    52   26   53 1
    53   26   54 1
    54   27   55 1
    55   27   56 1
    56   27   57 1
    57   28   29 2
    58   28   30 2
    59   28   31 1
    60   31   58 1
    61   31   59 1
    62   31   60 1
@<TRIPOS>MOLECULE
ZINC12986264
   60    64     0     0     0
SMALL
USER_CHARGES

@<TRIPOS>ATOM
      1 C1         -0.0167    1.3775    0.0096 C.ar      1 <0>        -0.0354
      2 C2          1.1709    2.0856    0.0021 C.ar      1 <0>        -0.1489
      3 C3          2.3781    1.4125   -0.0130 C.ar      1 <0>         0.0035
      4 C4          2.3993    0.0305   -0.0211 C.ar      1 <0>        -0.7173
      5 C5          1.2109   -0.6795   -0.0135 C.ar      1 <0>         0.1961
      6 C6          0.0021   -0.0041    0.0020 C.ar      1 <0>        -0.1716
      7 F1          1.2304   -2.0304   -0.0218 F         1 <0>        -0.1207
      8 S1          3.9383   -0.8272   -0.0415 S.o2      1 <0>         2.6909
      9 O1          3.8465   -1.8017   -1.0716 O.2       1 <0>        -0.9434
     10 O2          4.9561    0.1642   -0.0191 O.2       1 <0>        -0.9503
     11 N1          4.0550   -1.6577    1.3865 N.pl3     1 <0>        -0.9972
     12 C7          4.6650   -1.0378    2.5726 C.3       1 <0>         0.1233
     13 C8          5.7287   -1.9912    3.1274 C.3       1 <0>         0.0450
     14 N2          5.1266   -3.3114    3.3568 N.3       1 <0>        -0.5179
     15 C9          4.6589   -3.9095    2.0992 C.3       1 <0>         0.0412
     16 C10         3.5458   -3.0325    1.5040 C.3       1 <0>         0.1256
     17 C11         6.0655   -4.2053    4.0477 C.3       1 <0>         0.0339
     18 C12         5.3424   -5.4537    4.4830 C.2       1 <0>         0.5164
     19 O3          4.1613   -5.5858    4.2415 O.2       1 <0>        -0.5125
     20 N3          6.0083   -6.4235    5.1408 N.am      1 <0>        -0.7288
     21 C13         5.3054   -7.6372    5.5640 C.3       1 <0>         0.1859
     22 C14         4.1660   -7.2617    6.5137 C.3       1 <0>        -0.1204
     23 C15         3.4319   -8.5292    6.9557 C.3       1 <0>        -0.0828
     24 C16         4.4098   -9.4603    7.6753 C.3       1 <0>        -0.1114
     25 C17         5.5491   -9.8357    6.7256 C.3       1 <0>        -0.0805
     26 C18         6.2832   -8.5682    6.2836 C.3       1 <0>        -0.1148
     27 C19         4.9765  -10.5476    5.4984 C.3       1 <0>        -0.1115
     28 C20         3.9986   -9.6166    4.7788 C.3       1 <0>        -0.0827
     29 C21         2.8592   -9.2411    5.7284 C.3       1 <0>        -0.1090
     30 C22         4.7327   -8.3491    4.3368 C.3       1 <0>        -0.1210
     31 H1         -0.9592    1.9045    0.0259 H         1 <0>         0.1435
     32 H2          1.1553    3.1655    0.0076 H         1 <0>         0.1422
     33 H3          3.3051    1.9666   -0.0189 H         1 <0>         0.1533
     34 H4         -0.9257   -0.5570    0.0082 H         1 <0>         0.1470
     35 H5          5.1304   -0.0926    2.2933 H         1 <0>         0.0996
     36 H6          3.8998   -0.8630    3.3289 H         1 <0>         0.0804
     37 H7          6.5444   -2.0831    2.4102 H         1 <0>         0.0441
     38 H8          6.1138   -1.5986    4.0685 H         1 <0>         0.0917
     39 H9          5.4895   -3.9746    1.3964 H         1 <0>         0.0369
     40 H10         4.2681   -4.9081    2.2946 H         1 <0>         0.1077
     41 H11         2.6751   -3.0457    2.1595 H         1 <0>         0.0817
     42 H12         3.2710   -3.4067    0.5178 H         1 <0>         0.0990
     43 H13         6.8772   -4.4728    3.3711 H         1 <0>         0.0642
     44 H14         6.4735   -3.6981    4.9220 H         1 <0>         0.1056
     45 H15         6.9530   -6.3179    5.3339 H         1 <0>         0.3979
     46 H16         4.5740   -6.7545    7.3880 H         1 <0>         0.0582
     47 H17         3.4694   -6.5984    6.0010 H         1 <0>         0.0865
     48 H18         2.6202   -8.2617    7.6322 H         1 <0>         0.0716
     49 H19         4.8177   -8.9531    8.5496 H         1 <0>         0.0620
     50 H20         3.8868  -10.3633    7.9902 H         1 <0>         0.0645
     51 H21         6.2458  -10.4990    7.2383 H         1 <0>         0.0744
     52 H22         7.0949   -8.8357    5.6071 H         1 <0>         0.0675
     53 H23         6.6912   -8.0610    7.1579 H         1 <0>         0.0678
     54 H24         5.7881  -10.8151    4.8218 H         1 <0>         0.0620
     55 H25         4.4534  -11.4506    5.8133 H         1 <0>         0.0646
     56 H26         3.5906  -10.1238    3.9044 H         1 <0>         0.0718
     57 H27         2.3362  -10.1441    6.0433 H         1 <0>         0.0621
     58 H28         2.1626   -8.5778    5.2157 H         1 <0>         0.0650
     59 H29         4.0361   -7.6858    3.8241 H         1 <0>         0.0854
     60 H30         5.5444   -8.6165    3.6602 H         1 <0>         0.0580
@<TRIPOS>BOND
     1    1    6 ar
     2    1    2 ar
     3    1   31 1
     4    2    3 ar
     5    2   32 1
     6    3    4 ar
     7    3   33 1
     8    4    5 ar
     9    4    8 1
    10    5    6 ar
    11    5    7 1
    12    6   34 1
    13    8    9 2
    14    8   10 2
    15    8   11 1
    16   11   16 1
    17   11   12 1
    18   12   13 1
    19   12   35 1
    20   12   36 1
    21   13   14 1
    22   13   37 1
    23   13   38 1
    24   14   15 1
    25   14   17 1
    26   15   16 1
    27   15   39 1
    28   15   40 1
    29   16   41 1
    30   16   42 1
    31   17   18 1
    32   17   43 1
    33   17   44 1
    34   18   19 2
    35   18   20 am
    36   20   21 1
    37   20   45 1
    38   21   26 1
    39   21   30 1
    40   21   22 1
    41   22   23 1
    42   22   46 1
    43   22   47 1
    44   23   29 1
    45   23   24 1
    46   23   48 1
    47   24   25 1
    48   24   49 1
    49   24   50 1
    50   25   26 1
    51   25   27 1
    52   25   51 1
    53   26   52 1
    54   26   53 1
    55   27   28 1
    56   27   54 1
    57   27   55 1
    58   28   29 1
    59   28   30 1
    60   28   56 1
    61   29   57 1
    62   29   58 1
    63   30   59 1
    64   30   60 1
@<TRIPOS>MOLECULE
ZINC18127719
   54    57     0     0     0
SMALL
USER_CHARGES

@<TRIPOS>ATOM
      1 C1          1.8471   -2.4708    2.2870 C.3       1 <0>        -0.1101
      2 C2          1.0385   -1.9529    1.1255 C.ar      1 <0>        -0.0685
      3 C3          1.0677   -2.6142   -0.0866 C.ar      1 <0>        -0.1149
      4 C4          0.3264   -2.1393   -1.1530 C.ar      1 <0>        -0.1161
      5 C5         -0.4467   -1.0018   -1.0094 C.ar      1 <0>        -0.1160
      6 C6         -0.4805   -0.3362    0.2002 C.ar      1 <0>        -0.0946
      7 C7          0.2587   -0.8135    1.2746 C.ar      1 <0>         0.1354
      8 N1          0.2221   -0.1448    2.5032 N.am      1 <0>        -0.6783
      9 C8         -0.0697   -0.8227    3.6309 C.2       1 <0>         0.5117
     10 O1         -0.3599   -1.9989    3.5736 O.2       1 <0>        -0.4956
     11 C9         -0.0355   -0.1191    4.9632 C.3       1 <0>         0.0377
     12 N2         -0.3888   -1.0682    6.0274 N.3       1 <0>        -0.5205
     13 C10        -1.7826   -1.5130    5.8947 C.3       1 <0>         0.0396
     14 C11        -2.0569   -2.6311    6.9059 C.3       1 <0>         0.1201
     15 N3         -1.6817   -2.1524    8.2450 N.am      1 <0>        -0.5946
     16 C12        -0.3453   -1.5651    8.4249 C.3       1 <0>         0.0599
     17 C13        -0.1384   -0.4889    7.3539 C.3       1 <0>         0.0491
     18 C14        -2.5396   -2.2497    9.2800 C.2       1 <0>         0.5897
     19 O2         -3.5766   -2.8727    9.1538 O.2       1 <0>        -0.5352
     20 C15        -2.2213   -1.6017   10.5637 C.2       1 <0>        -0.0064
     21 C16        -2.9831   -1.8500   11.6738 C.2       1 <0>        -0.1979
     22 S1         -2.2374   -0.9026   12.8480 S.3       1 <0>         0.2128
     23 C17        -0.9439   -0.2100   11.8330 C.2       1 <0>         0.1377
     24 N4         -1.1892   -0.7736   10.6612 N.2       1 <0>        -0.4480
     25 C18         0.1209    0.7360   12.2035 C.2       1 <0>        -0.1016
     26 C19         0.3814    1.3107   13.4218 C.2       1 <0>        -0.1111
     27 C20         1.4459    2.1757   13.5301 C.2       1 <0>        -0.1616
     28 C21         2.2043    2.4339   12.4325 C.2       1 <0>        -0.1593
     29 S2          1.4147    1.4283   11.1865 S.3       1 <0>         0.1236
     30 C22        -1.3228    0.9037    0.3557 C.3       1 <0>        -0.1100
     31 H1          1.2547   -3.1930    2.8489 H         1 <0>         0.0892
     32 H2          2.7505   -2.9535    1.9142 H         1 <0>         0.0602
     33 H3          2.1210   -1.6406    2.9379 H         1 <0>         0.0562
     34 H4          1.6704   -3.5029   -0.2019 H         1 <0>         0.1251
     35 H5          0.3514   -2.6578   -2.1001 H         1 <0>         0.1244
     36 H6         -1.0243   -0.6332   -1.8443 H         1 <0>         0.1252
     37 H7          0.4067    0.8066    2.5432 H         1 <0>         0.4063
     38 H8          0.9663    0.2712    5.1423 H         1 <0>         0.1081
     39 H9         -0.7504    0.7037    4.9581 H         1 <0>         0.0652
     40 H10        -2.4519   -0.6748    6.0887 H         1 <0>         0.0328
     41 H11        -1.9505   -1.8868    4.8846 H         1 <0>         0.1051
     42 H12        -3.1166   -2.8858    6.8917 H         1 <0>         0.0939
     43 H13        -1.4630   -3.5090    6.6512 H         1 <0>         0.0795
     44 H14        -0.2734   -1.1149    9.4150 H         1 <0>         0.1659
     45 H15         0.4131   -2.3404    8.3162 H         1 <0>         0.0660
     46 H16         0.8862   -0.1200    7.4021 H         1 <0>         0.0869
     47 H17        -0.8306    0.3350    7.5276 H         1 <0>         0.0391
     48 H18        -3.8458   -2.4924   11.7715 H         1 <0>         0.2136
     49 H19        -0.2372    1.0889   14.2788 H         1 <0>         0.1410
     50 H20         1.6758    2.6439   14.4758 H         1 <0>         0.1442
     51 H21         3.0657    3.0786   12.3389 H         1 <0>         0.1941
     52 H22        -2.2919    0.6344    0.7756 H         1 <0>         0.0702
     53 H23        -0.8196    1.6036    1.0228 H         1 <0>         0.0614
     54 H24        -1.4662    1.3701   -0.6190 H         1 <0>         0.0694
@<TRIPOS>BOND
     1    1    2 1
     2    1   31 1
     3    1   32 1
     4    1   33 1
     5    2    7 ar
     6    2    3 ar
     7    3    4 ar
     8    3   34 1
     9    4    5 ar
    10    4   35 1
    11    5    6 ar
    12    5   36 1
    13    6    7 ar
    14    6   30 1
    15    7    8 1
    16    8    9 am
    17    8   37 1
    18    9   10 2
    19    9   11 1
    20   11   12 1
    21   11   38 1
    22   11   39 1
    23   12   17 1
    24   12   13 1
    25   13   14 1
    26   13   40 1
    27   13   41 1
    28   14   15 1
    29   14   42 1
    30   14   43 1
    31   15   16 1
    32   15   18 am
    33   16   17 1
    34   16   44 1
    35   16   45 1
    36   17   46 1
    37   17   47 1
    38   18   19 2
    39   18   20 1
    40   20   24 1
    41   20   21 2
    42   21   22 1
    43   21   48 1
    44   22   23 1
    45   23   24 2
    46   23   25 1
    47   25   29 1
    48   25   26 2
    49   26   27 1
    50   26   49 1
    51   27   28 2
    52   27   50 1
    53   28   29 1
    54   28   51 1
    55   30   52 1
    56   30   53 1
    57   30   54 1
@<TRIPOS>MOLECULE
ZINC01032419
   46    49     0     0     0
SMALL
USER_CHARGES
3,5-dimethyl-N-[4-[5-(2-thienyl)-3-(trifluoromethyl)pyrazol-1-yl]phenyl]-isoxazole-4-sulfonamide
@<TRIPOS>ATOM
      1 C1         -0.3319    2.1333   -4.1697 C.3       1 <0>        -0.1060
      2 C2         -1.8016    2.0638   -3.8439 C.2       1 <0>         0.1151
      3 C3         -2.5490    3.0037   -3.0976 C.2       1 <0>        -0.8006
      4 C4         -3.8042    2.4946   -3.0934 C.2       1 <0>         0.1165
      5 O1         -3.7512    1.3484   -3.7864 O.3       1 <0>         0.1042
      6 N1         -2.6339    1.1252   -4.1914 N.2       1 <0>        -0.3580
      7 C5         -5.0203    3.0978   -2.4389 C.3       1 <0>        -0.1027
      8 S1         -1.9808    4.4956   -2.3520 S.o2      1 <0>         2.7237
      9 O2         -3.0825    5.3931   -2.3486 O.2       1 <0>        -0.9411
     10 O3         -0.7417    4.8128   -2.9712 O.2       1 <0>        -0.9342
     11 N2         -1.6441    4.1536   -0.7671 N.pl3     1 <0>        -1.0612
     12 C6         -0.6122    3.2661   -0.4475 C.ar      1 <0>         0.1353
     13 C7         -0.9112    1.9867    0.0037 C.ar      1 <0>        -0.0959
     14 C8          0.1077    1.1125    0.3246 C.ar      1 <0>        -0.0885
     15 C9          1.4316    1.5081    0.1857 C.ar      1 <0>         0.1407
     16 C10         1.7308    2.7853   -0.2703 C.ar      1 <0>        -0.0983
     17 C11         0.7122    3.6617   -0.5860 C.ar      1 <0>        -0.0799
     18 N3          2.4663    0.6182    0.5062 N.pl3     1 <0>        -0.3037
     19 C12         3.5897    0.9140    1.2269 C.2       1 <0>         0.1819
     20 C13         4.3347   -0.2447    1.3089 C.2       1 <0>        -0.1925
     21 C14         3.6457   -1.2404    0.6175 C.2       1 <0>        -0.0076
     22 N4          2.5374   -0.7317    0.1404 N.2       1 <0>        -0.2149
     23 C15         4.1016   -2.6666    0.4471 C.3       1 <0>         0.5576
     24 F1          3.2140   -3.3422   -0.3974 F         1 <0>        -0.1634
     25 F2          5.3829   -2.6827   -0.1143 F         1 <0>        -0.1623
     26 F3          4.1310   -3.2991    1.6946 F         1 <0>        -0.1631
     27 C16         3.9378    2.2217    1.8084 C.2       1 <0>        -0.1368
     28 C17         5.1645    2.6952    2.1984 C.2       1 <0>        -0.0982
     29 C18         5.2463    3.9665    2.7214 C.2       1 <0>        -0.1640
     30 C19         4.1155    4.7099    2.8350 C.2       1 <0>        -0.1582
     31 S2          2.8739    3.6059    2.1820 S.3       1 <0>         0.0874
     32 H1          0.2381    1.6359   -3.3849 H         1 <0>         0.0879
     33 H2         -0.1471    1.6375   -5.1227 H         1 <0>         0.0870
     34 H3         -0.0235    3.1766   -4.2370 H         1 <0>         0.1105
     35 H4         -5.5244    3.7564   -3.1461 H         1 <0>         0.1145
     36 H5         -5.7008    2.3027   -2.1341 H         1 <0>         0.1017
     37 H6         -4.7151    3.6704   -1.5631 H         1 <0>         0.1023
     38 H7         -2.1627    4.5690   -0.0605 H         1 <0>         0.4305
     39 H8         -1.9408    1.6775    0.1076 H         1 <0>         0.1418
     40 H9         -0.1247    0.1194    0.6796 H         1 <0>         0.1425
     41 H10         2.7604    3.0928   -0.3783 H         1 <0>         0.1429
     42 H11         0.9449    4.6551   -0.9402 H         1 <0>         0.1534
     43 H12         5.2826   -0.3586    1.8137 H         1 <0>         0.1731
     44 H13         6.0486    2.0832    2.0976 H         1 <0>         0.1441
     45 H14         6.1981    4.3672    3.0377 H         1 <0>         0.1439
     46 H15         3.9983    5.7130    3.2176 H         1 <0>         0.1926
@<TRIPOS>BOND
     1    1    2 1
     2    1   32 1
     3    1   33 1
     4    1   34 1
     5    2    6 2
     6    2    3 1
     7    3    4 2
     8    3    8 1
     9    4    5 1
    10    4    7 1
    11    5    6 1
    12    7   35 1
    13    7   36 1
    14    7   37 1
    15    8    9 2
    16    8   10 2
    17    8   11 1
    18   11   12 1
    19   11   38 1
    20   12   17 ar
    21   12   13 ar
    22   13   14 ar
    23   13   39 1
    24   14   15 ar
    25   14   40 1
    26   15   16 ar
    27   15   18 1
    28   16   17 ar
    29   16   41 1
    30   17   42 1
    31   18   22 1
    32   18   19 1
    33   19   20 2
    34   19   27 1
    35   20   21 1
    36   20   43 1
    37   21   22 2
    38   21   23 1
    39   23   24 1
    40   23   25 1
    41   23   26 1
    42   27   31 1
    43   27   28 2
    44   28   29 1
    45   28   44 1
    46   29   30 2
    47   29   45 1
    48   30   31 1
    49   30   46 1
@<TRIPOS>MOLECULE
ZINC11001622
   56    60     0     0     0
SMALL
USER_CHARGES
1-[[1-(4-fluorophenyl)-5-(2-thienyl)-1,2,4-triazol-3-yl]carbonyl]-N-phenyl-piperidine-4-carboxamide
@<TRIPOS>ATOM
      1 C1         -3.8780   -1.7510    0.5642 C.ar      1 <0>        -0.1337
      2 C2         -3.7489   -0.6457   -0.2567 C.ar      1 <0>        -0.1023
      3 C3         -2.5231   -0.0239   -0.3924 C.ar      1 <0>        -0.1196
      4 C4         -1.4198   -0.5095    0.2971 C.ar      1 <0>         0.1410
      5 C5         -1.5517   -1.6226    1.1169 C.ar      1 <0>        -0.1450
      6 C6         -2.7813   -2.2370    1.2521 C.ar      1 <0>        -0.1023
      7 N1         -0.1764    0.1179    0.1614 N.am      1 <0>        -0.6746
      8 C7         -0.1081    1.4579    0.0340 C.2       1 <0>         0.5181
      9 O1         -1.1264    2.1138   -0.0285 O.2       1 <0>        -0.5146
     10 C8          1.2335    2.1406   -0.0371 C.3       1 <0>        -0.1067
     11 C9          2.0225    1.8486    1.2413 C.3       1 <0>        -0.1259
     12 C10         3.3987    2.5154    1.1507 C.3       1 <0>         0.0766
     13 N2          3.2137    3.9455    0.8692 N.am      1 <0>        -0.5905
     14 C11         2.3951    4.3379   -0.2861 C.3       1 <0>         0.1124
     15 C12         1.0301    3.6508   -0.1794 C.3       1 <0>        -0.1143
     16 C13         3.7838    4.8796    1.6559 C.2       1 <0>         0.6140
     17 O2          3.5216    6.0551    1.4914 O.2       1 <0>        -0.5060
     18 C14         4.7281    4.4745    2.7191 C.2       1 <0>         0.1987
     19 N3          5.1815    3.2306    2.9220 N.2       1 <0>        -0.4925
     20 C15         6.0057    3.2193    3.9495 C.2       1 <0>         0.3818
     21 N4          6.0916    4.4953    4.4306 N.pl3     1 <0>        -0.3226
     22 N5          5.2617    5.2807    3.6141 N.2       1 <0>        -0.2247
     23 C16         6.8582    4.9334    5.5177 C.ar      1 <0>         0.1143
     24 C17         6.3177    5.8248    6.4355 C.ar      1 <0>        -0.0621
     25 C18         7.0739    6.2525    7.5088 C.ar      1 <0>        -0.1353
     26 C19         8.3736    5.8003    7.6653 C.ar      1 <0>         0.1185
     27 C20         8.9161    4.9152    6.7486 C.ar      1 <0>        -0.1284
     28 C21         8.1618    4.4816    5.6763 C.ar      1 <0>        -0.0827
     29 F1          9.1134    6.2236    8.7135 F         1 <0>        -0.1277
     30 C22         6.7084    2.0421    4.4844 C.2       1 <0>        -0.1496
     31 C23         6.8613    0.7983    3.9252 C.2       1 <0>        -0.0661
     32 C24         7.5677   -0.1559    4.6197 C.2       1 <0>        -0.1712
     33 C25         8.0911    0.1599    5.8338 C.2       1 <0>        -0.1503
     34 S1          7.5906    1.8627    6.0262 S.3       1 <0>         0.1083
     35 H1         -4.8374   -2.2359    0.6681 H         1 <0>         0.1236
     36 H2         -4.6073   -0.2686   -0.7926 H         1 <0>         0.1258
     37 H3         -2.4228    0.8389   -1.0342 H         1 <0>         0.1361
     38 H4         -0.6946   -2.0051    1.6513 H         1 <0>         0.1247
     39 H5         -2.8854   -3.1004    1.8924 H         1 <0>         0.1262
     40 H6          0.6363   -0.4115    0.1591 H         1 <0>         0.4106
     41 H7          1.7864    1.7659   -0.8984 H         1 <0>         0.1055
     42 H8          1.4821    2.2450    2.1009 H         1 <0>         0.0736
     43 H9          2.1467    0.7716    1.3542 H         1 <0>         0.0819
     44 H10         3.9749    2.0563    0.3474 H         1 <0>         0.0742
     45 H11         3.9263    2.3945    2.0968 H         1 <0>         0.1458
     46 H12         2.8895    4.0276   -1.2066 H         1 <0>         0.0775
     47 H13         2.2605    5.4196   -0.2880 H         1 <0>         0.1018
     48 H14         0.4480    3.8565   -1.0777 H         1 <0>         0.0889
     49 H15         0.4991    4.0302    0.6936 H         1 <0>         0.0781
     50 H16         5.3056    6.1807    6.3115 H         1 <0>         0.1473
     51 H17         6.6530    6.9432    8.2243 H         1 <0>         0.1521
     52 H18         9.9300    4.5641    6.8723 H         1 <0>         0.1534
     53 H19         8.5855    3.7919    4.9613 H         1 <0>         0.1466
     54 H20         6.4350    0.5730    2.9588 H         1 <0>         0.1496
     55 H21         7.7052   -1.1437    4.2054 H         1 <0>         0.1464
     56 H22         8.6664   -0.4587    6.5067 H         1 <0>         0.1949
@<TRIPOS>BOND
     1    1    6 ar
     2    1    2 ar
     3    1   35 1
     4    2    3 ar
     5    2   36 1
     6    3    4 ar
     7    3   37 1
     8    4    5 ar
     9    4    7 1
    10    5    6 ar
    11    5   38 1
    12    6   39 1
    13    7    8 am
    14    7   40 1
    15    8    9 2
    16    8   10 1
    17   10   15 1
    18   10   11 1
    19   10   41 1
    20   11   12 1
    21   11   42 1
    22   11   43 1
    23   12   13 1
    24   12   44 1
    25   12   45 1
    26   13   14 1
    27   13   16 am
    28   14   15 1
    29   14   46 1
    30   14   47 1
    31   15   48 1
    32   15   49 1
    33   16   17 2
    34   16   18 1
    35   18   22 2
    36   18   19 1
    37   19   20 2
    38   20   21 1
    39   20   30 1
    40   21   22 1
    41   21   23 1
    42   23   28 ar
    43   23   24 ar
    44   24   25 ar
    45   24   50 1
    46   25   26 ar
    47   25   51 1
    48   26   27 ar
    49   26   29 1
    50   27   28 ar
    51   27   52 1
    52   28   53 1
    53   30   34 1
    54   30   31 2
    55   31   32 1
    56   31   54 1
    57   32   33 2
    58   32   55 1
    59   33   34 1
    60   33   56 1
@<TRIPOS>MOLECULE
ZINC19166170
   63    67     0     0     0
SMALL
USER_CHARGES
N-(4-tert-butylphenyl)-6-cyclopropyl-1-[(3S)-1,1-dioxothiolan-3-yl]-3-methyl-pyrazolo[5,4-b]pyridine-4-carboxamide
@<TRIPOS>ATOM
      1 C1         -5.5295    0.6602    0.0594 C.3       1 <0>        -0.0801
      2 C2         -6.4881    1.8174   -0.0554 C.2       1 <0>         0.1271
      3 C3         -6.1286    3.1788   -0.1471 C.ar      1 <0>        -0.1817
      4 C4         -4.8954    3.8684   -0.1502 C.ar      1 <0>        -0.0014
      5 C5         -4.9276    5.2575   -0.2513 C.ar      1 <0>        -0.1775
      6 C6         -6.1511    5.9047   -0.3385 C.ar      1 <0>         0.2356
      7 N1         -7.2855    5.2407   -0.3281 N.ar      1 <0>        -0.4824
      8 C7         -7.3245    3.9191   -0.2343 C.ar      1 <0>         0.3239
      9 N2         -8.3465    3.0062   -0.2022 N.pl3     1 <0>        -0.3784
     10 N3         -7.7870    1.7278   -0.0917 N.2       1 <0>        -0.2349
     11 C8         -9.7769    3.3150   -0.2719 C.3       1 <0>         0.1727
     12 H1         -9.9175    4.3936   -0.3426 H         1 <0>         0.1324
     13 C9        -10.3971    2.6287   -1.5002 C.3       1 <0>        -0.1384
     14 C10       -11.9413    2.6785   -1.4090 C.3       1 <0>        -0.5728
     15 S1        -12.2374    2.7237    0.4056 S.o2      1 <0>         2.3786
     16 O1        -12.8750    3.9489    0.7397 O.2       1 <0>        -0.9254
     17 O2        -12.8271    1.4952    0.8086 O.2       1 <0>        -0.9249
     18 C11       -10.4936    2.7744    0.9983 C.3       1 <0>        -0.5962
     19 C12        -6.1807    7.4075   -0.4477 C.3       1 <0>        -0.1172
     20 C13        -4.9062    8.1681   -0.0761 C.3       1 <0>        -0.1682
     21 C14        -6.1213    8.2115    0.8527 C.3       1 <0>        -0.1556
     22 C15        -3.6129    3.1394   -0.0556 C.2       1 <0>         0.5571
     23 O3         -3.4773    2.0719   -0.6213 O.2       1 <0>        -0.4882
     24 N4         -2.5939    3.6582    0.6578 N.am      1 <0>        -0.6623
     25 C16        -1.3451    3.0292    0.6523 C.ar      1 <0>         0.1357
     26 C17        -0.8951    2.3854   -0.4933 C.ar      1 <0>        -0.1140
     27 C18         0.3366    1.7607   -0.4938 C.ar      1 <0>        -0.0951
     28 C19         1.1263    1.7850    0.6412 C.ar      1 <0>        -0.0786
     29 C20         0.6838    2.4300    1.7815 C.ar      1 <0>        -0.1015
     30 C21        -0.5492    3.0521    1.7904 C.ar      1 <0>        -0.1382
     31 C22         2.4725    1.1076    0.6351 C.3       1 <0>        -0.0296
     32 C23         3.3553    1.7371   -0.4444 C.3       1 <0>        -0.1395
     33 C24         3.1368    1.2809    2.0023 C.3       1 <0>        -0.1457
     34 C25         2.2920   -0.3830    0.3410 C.3       1 <0>        -0.1400
     35 H2         -5.3321    0.2522   -0.9318 H         1 <0>         0.0899
     36 H3         -4.5954    1.0049    0.5031 H         1 <0>         0.0940
     37 H4         -5.9676   -0.1133    0.6901 H         1 <0>         0.0747
     38 H5         -4.0087    5.8248   -0.2619 H         1 <0>         0.1512
     39 H6        -10.0713    3.1424   -2.4047 H         1 <0>         0.1028
     40 H7        -10.0701    1.5896   -1.5377 H         1 <0>         0.1029
     41 H8        -12.3279    3.5791   -1.8862 H         1 <0>         0.1457
     42 H9        -12.3836    1.7855   -1.8506 H         1 <0>         0.1501
     43 H10       -10.1365    1.7779    1.2584 H         1 <0>         0.1532
     44 H11       -10.3820    3.4621    1.8366 H         1 <0>         0.1478
     45 H12        -6.7876    7.8080   -1.2597 H         1 <0>         0.1299
     46 H13        -4.0463    7.5815    0.2473 H         1 <0>         0.1001
     47 H14        -4.6743    9.0691   -0.6439 H         1 <0>         0.1078
     48 H15        -6.6887    9.1412    0.8960 H         1 <0>         0.1061
     49 H16        -6.0607    7.6536    1.7871 H         1 <0>         0.0972
     50 H17        -2.7268    4.4679    1.1750 H         1 <0>         0.4126
     51 H18        -1.5094    2.3698   -1.3814 H         1 <0>         0.1332
     52 H19         0.6853    1.2564   -1.3829 H         1 <0>         0.1253
     53 H20         1.3031    2.4474    2.6661 H         1 <0>         0.1316
     54 H21        -0.8939    3.5563    2.6811 H         1 <0>         0.1254
     55 H22         3.4839    2.7990   -0.2349 H         1 <0>         0.0565
     56 H23         4.3290    1.2472   -0.4488 H         1 <0>         0.0592
     57 H24         2.8820    1.6137   -1.4185 H         1 <0>         0.0571
     58 H25         2.5079    0.8324    2.7714 H         1 <0>         0.0589
     59 H26         4.1105    0.7909    1.9979 H         1 <0>         0.0593
     60 H27         3.2654    2.3428    2.2119 H         1 <0>         0.0589
     61 H28         1.8187   -0.5064   -0.6331 H         1 <0>         0.0574
     62 H29         3.2656   -0.8730    0.3366 H         1 <0>         0.0592
     63 H30         1.6630   -0.8315    1.1100 H         1 <0>         0.0568
@<TRIPOS>BOND
     1    1    2 1
     2    1   35 1
     3    1   36 1
     4    1   37 1
     5    2   10 2
     6    2    3 1
     7    3    8 ar
     8    3    4 ar
     9    4    5 ar
    10    4   22 1
    11    5    6 ar
    12    5   38 1
    13    6    7 ar
    14    6   19 1
    15    7    8 ar
    16    8    9 1
    17    9   10 1
    18    9   11 1
    19   11   12 1
    20   11   18 1
    21   11   13 1
    22   13   14 1
    23   13   39 1
    24   13   40 1
    25   14   15 1
    26   14   41 1
    27   14   42 1
    28   15   16 2
    29   15   17 2
    30   15   18 1
    31   18   43 1
    32   18   44 1
    33   19   21 1
    34   19   20 1
    35   19   45 1
    36   20   21 1
    37   20   46 1
    38   20   47 1
    39   21   48 1
    40   21   49 1
    41   22   23 2
    42   22   24 am
    43   24   25 1
    44   24   50 1
    45   25   30 ar
    46   25   26 ar
    47   26   27 ar
    48   26   51 1
    49   27   28 ar
    50   27   52 1
    51   28   29 ar
    52   28   31 1
    53   29   30 ar
    54   29   53 1
    55   30   54 1
    56   31   32 1
    57   31   33 1
    58   31   34 1
    59   32   55 1
    60   32   56 1
    61   32   57 1
    62   33   58 1
    63   33   59 1
    64   33   60 1
    65   34   61 1
    66   34   62 1
    67   34   63 1
@<TRIPOS>MOLECULE
ZINC32616211
   62    66     0     0     0
SMALL
USER_CHARGES
(3R)-1-(3,4-dimethylphenyl)-N-[2-methyl-3-[4-(p-tolyl)thiazol-2-yl]imidazol-4-yl]-5-oxo-pyrrolidine-3-carboxamide
@<TRIPOS>ATOM
      1 C1        -16.3039   10.2047   -1.0886 C.3       1 <0>        -0.1224
      2 C2        -14.8789    9.7238   -0.9933 C.ar      1 <0>        -0.0705
      3 C3        -14.0043   10.3311   -0.1101 C.ar      1 <0>        -0.1231
      4 C4        -12.6983    9.8949   -0.0186 C.ar      1 <0>        -0.0765
      5 C5        -12.2609    8.8402   -0.8181 C.ar      1 <0>        -0.0424
      6 C6        -13.1451    8.2356   -1.7099 C.ar      1 <0>        -0.0945
      7 C7        -14.4504    8.6764   -1.7889 C.ar      1 <0>        -0.1218
      8 C8        -10.8582    8.3672   -0.7246 C.2       1 <0>         0.1284
      9 C9        -10.4249    7.3327   -1.5072 C.2       1 <0>        -0.1794
     10 S1         -8.7186    7.2156   -0.9854 S.3       1 <0>         0.0218
     11 C10        -8.7618    8.5384    0.2160 C.2       1 <0>         0.3223
     12 N1        -10.0136    8.9427    0.1169 N.2       1 <0>        -0.4930
     13 N2         -7.7419    9.0191    1.0355 N.pl3     1 <0>        -0.3862
     14 C11        -7.8358   10.0421    1.9322 C.2       1 <0>         0.2522
     15 N3         -6.6763   10.1995    2.5084 N.2       1 <0>        -0.4544
     16 C12        -5.8083    9.2996    2.0211 C.2       1 <0>         0.0008
     17 C13        -6.4508    8.5527    1.0927 C.2       1 <0>         0.1970
     18 N4         -5.9079    7.5066    0.3426 N.am      1 <0>        -0.6514
     19 C14        -4.6164    7.1585    0.5077 C.2       1 <0>         0.5291
     20 O1         -3.9254    7.7535    1.3076 O.2       1 <0>        -0.4972
     21 C15        -4.0308    6.0301   -0.3015 C.3       1 <0>        -0.1194
     22 H1         -4.1117    6.3777   -1.3420 H         1 <0>         0.1323
     23 C16        -4.7619    4.7000   -0.0063 C.3       1 <0>        -0.1485
     24 C17        -3.6656    3.6581   -0.0429 C.2       1 <0>         0.5255
     25 O2         -3.8465    2.4625   -0.1379 O.2       1 <0>        -0.4991
     26 N5         -2.4621    4.2500    0.0456 N.am      1 <0>        -0.5527
     27 C18        -2.5920    5.7070    0.1649 C.3       1 <0>         0.1118
     28 C19        -1.2422    3.5647    0.0317 C.ar      1 <0>         0.1597
     29 C20        -1.2241    2.1759    0.0404 C.ar      1 <0>        -0.1553
     30 C21        -0.0185    1.5026    0.0272 C.ar      1 <0>        -0.0890
     31 C22         1.1699    2.2096    0.0057 C.ar      1 <0>        -0.1078
     32 C23         1.1553    3.5921   -0.0034 C.ar      1 <0>        -0.0594
     33 C24        -0.0472    4.2716    0.0146 C.ar      1 <0>        -0.1515
     34 C25         2.4526    4.3584   -0.0268 C.3       1 <0>        -0.1168
     35 C26         2.4837    1.4715   -0.0082 C.3       1 <0>        -0.1194
     36 C27        -9.0732   10.8558    2.2108 C.3       1 <0>        -0.0683
     37 H2        -16.4577   11.0372   -0.3862 H         1 <0>         0.0680
     38 H3        -16.9868    9.3803   -0.8353 H         1 <0>         0.0732
     39 H4        -16.5074   10.5476   -2.1138 H         1 <0>         0.0732
     40 H5        -14.3442   11.1484    0.5086 H         1 <0>         0.1275
     41 H6        -12.0164   10.3695    0.6715 H         1 <0>         0.1333
     42 H7        -12.8103    7.4210   -2.3350 H         1 <0>         0.1258
     43 H8        -15.1377    8.2054   -2.4761 H         1 <0>         0.1281
     44 H9        -10.9632    6.7503   -2.2403 H         1 <0>         0.2129
     45 H10        -4.7751    9.1917    2.3165 H         1 <0>         0.2080
     46 H11        -6.5345    6.9670   -0.3828 H         1 <0>         0.4235
     47 H12        -5.2438    4.7577    0.9808 H         1 <0>         0.1187
     48 H13        -5.5260    4.5226   -0.7775 H         1 <0>         0.1205
     49 H14        -1.8711    6.2298   -0.4809 H         1 <0>         0.1006
     50 H15        -2.4605    6.0392    1.2052 H         1 <0>         0.1074
     51 H16        -2.1518    1.6233    0.0571 H         1 <0>         0.1540
     52 H17        -0.0037    0.4227    0.0339 H         1 <0>         0.1270
     53 H18        -0.0580    5.3516    0.0119 H         1 <0>         0.1265
     54 H19         2.2408    5.4378   -0.0311 H         1 <0>         0.0657
     55 H20         3.0193    4.0923   -0.9312 H         1 <0>         0.0728
     56 H21         3.0446    4.1044    0.8648 H         1 <0>         0.0731
     57 H22         3.3112    2.1961   -0.0247 H         1 <0>         0.0693
     58 H23         2.5366    0.8340   -0.9031 H         1 <0>         0.0688
     59 H24         2.5622    0.8457    0.8930 H         1 <0>         0.0690
     60 H25        -8.8508   11.6095    2.9805 H         1 <0>         0.1000
     61 H26        -9.8753   10.1929    2.5676 H         1 <0>         0.0862
     62 H27        -9.3968   11.3588    1.2876 H         1 <0>         0.0860
@<TRIPOS>BOND
     1    1    2 1
     2    1   37 1
     3    1   38 1
     4    1   39 1
     5    2    7 ar
     6    2    3 ar
     7    3    4 ar
     8    3   40 1
     9    4    5 ar
    10    4   41 1
    11    5    6 ar
    12    5    8 1
    13    6    7 ar
    14    6   42 1
    15    7   43 1
    16    8   12 1
    17    8    9 2
    18    9   10 1
    19    9   44 1
    20   10   11 1
    21   11   12 2
    22   11   13 1
    23   13   17 1
    24   13   14 1
    25   14   15 2
    26   14   36 1
    27   15   16 1
    28   16   17 2
    29   16   45 1
    30   17   18 1
    31   18   19 am
    32   18   46 1
    33   19   20 2
    34   19   21 1
    35   21   22 1
    36   21   27 1
    37   21   23 1
    38   23   24 1
    39   23   47 1
    40   23   48 1
    41   24   25 2
    42   24   26 am
    43   26   27 1
    44   26   28 1
    45   27   49 1
    46   27   50 1
    47   28   33 ar
    48   28   29 ar
    49   29   30 ar
    50   29   51 1
    51   30   31 ar
    52   30   52 1
    53   31   32 ar
    54   31   35 1
    55   32   33 ar
    56   32   34 1
    57   33   53 1
    58   34   54 1
    59   34   55 1
    60   34   56 1
    61   35   57 1
    62   35   58 1
    63   35   59 1
    64   36   60 1
    65   36   61 1
    66   36   62 1
@<TRIPOS>MOLECULE
ZINC41156044
   62    65     0     0     0
SMALL
USER_CHARGES

@<TRIPOS>ATOM
      1 C1         -0.0184    1.5028    0.0103 C.3       1 <0>        -0.1192
      2 C2          0.0021   -0.0041    0.0020 C.ar      1 <0>        -0.0483
      3 C3          0.0057   -0.6883   -1.1997 C.ar      1 <0>        -0.1500
      4 C4          0.0244   -2.0706   -1.2107 C.ar      1 <0>        -0.0818
      5 C5          0.0391   -2.7719   -0.0203 C.ar      1 <0>        -0.2128
      6 C6          0.0355   -2.0879    1.1864 C.ar      1 <0>         0.1262
      7 C7          0.0229   -0.7004    1.1947 C.ar      1 <0>        -0.1089
      8 C8          0.0256    0.0460    2.5038 C.3       1 <0>        -0.1103
      9 O1          0.0500   -2.7755    2.3585 O.3       1 <0>        -0.2854
     10 C9          0.0686   -4.2018    2.2738 C.3       1 <0>         0.0488
     11 C10         0.0826   -4.7874    3.6623 C.2       1 <0>         0.5235
     12 O2          0.0773   -4.0553    4.6293 O.2       1 <0>        -0.4711
     13 N1          0.1012   -6.1246    3.8296 N.am      1 <0>        -0.6493
     14 C11         0.1142   -6.6666    5.1148 C.2       1 <0>         0.3085
     15 C12         0.1043   -5.9671    6.2798 C.2       1 <0>        -0.2536
     16 C13         0.1238   -6.8943    7.3382 C.2       1 <0>         0.1392
     17 N2          0.1447   -8.1050    6.8225 N.2       1 <0>        -0.2714
     18 N3          0.1332   -7.9890    5.4268 N.pl3     1 <0>        -0.3817
     19 C14         0.1432   -9.0989    4.4707 C.3       1 <0>         0.1706
     20 H1          0.1455   -8.7020    3.4556 H         1 <0>         0.1133
     21 C15         1.4054   -9.9496    4.6891 C.3       1 <0>        -0.1422
     22 C16         1.2397  -11.2755    3.8931 C.3       1 <0>        -0.5721
     23 S1         -0.5327  -11.6510    4.2288 S.o2      1 <0>         2.3787
     24 O3         -0.6188  -12.4913    5.3715 O.2       1 <0>        -0.9198
     25 O4         -1.1578  -12.0519    3.0173 O.2       1 <0>        -0.9285
     26 C17        -1.1201   -9.9683    4.6795 C.3       1 <0>        -0.6027
     27 C18         0.1214   -6.5641    8.7853 C.ar      1 <0>        -0.0245
     28 C19         0.0922   -5.2338    9.1989 C.ar      1 <0>        -0.0904
     29 C20         0.0896   -4.9325   10.5456 C.ar      1 <0>        -0.1183
     30 C21         0.1158   -5.9483   11.4843 C.ar      1 <0>        -0.0749
     31 C22         0.1447   -7.2703   11.0794 C.ar      1 <0>        -0.0905
     32 C23         0.1423   -7.5832    9.7348 C.ar      1 <0>        -0.0854
     33 C24         0.1736   -8.3715   12.1078 C.3       1 <0>        -0.1183
     34 C25         0.1132   -5.6131   12.9536 C.3       1 <0>        -0.1210
     35 H2          1.0042    1.8801    0.0026 H         1 <0>         0.0751
     36 H3         -0.5455    1.8639   -0.8728 H         1 <0>         0.0703
     37 H4         -0.5286    1.8543    0.9071 H         1 <0>         0.0725
     38 H5         -0.0065   -0.1419   -2.1312 H         1 <0>         0.1254
     39 H6          0.0272   -2.6027   -2.1505 H         1 <0>         0.1264
     40 H7          0.0530   -3.8518   -0.0294 H         1 <0>         0.1262
     41 H8         -1.0013    0.2123    2.8294 H         1 <0>         0.0699
     42 H9          0.5545   -0.5403    3.2552 H         1 <0>         0.0730
     43 H10         0.5255    1.0058    2.3738 H         1 <0>         0.0682
     44 H11        -0.8194   -4.5459    1.7434 H         1 <0>         0.1006
     45 H12         0.9604   -4.5222    1.7353 H         1 <0>         0.1003
     46 H13         0.1055   -6.7101    3.0563 H         1 <0>         0.4115
     47 H14         0.0852   -4.8916    6.3762 H         1 <0>         0.1786
     48 H15         2.2804   -9.4097    4.3271 H         1 <0>         0.1079
     49 H16         1.5221  -10.1694    5.7503 H         1 <0>         0.1093
     50 H17         1.4150  -11.1206    2.8284 H         1 <0>         0.1445
     51 H18         1.8897  -12.0563    4.2880 H         1 <0>         0.1512
     52 H19        -1.4430   -9.9373    5.7201 H         1 <0>         0.1575
     53 H20        -1.9231   -9.6493    4.0149 H         1 <0>         0.1491
     54 H21         0.0721   -4.4400    8.4669 H         1 <0>         0.1291
     55 H22         0.0674   -3.9017   10.8673 H         1 <0>         0.1271
     56 H23         0.1607   -8.6160    9.4197 H         1 <0>         0.1291
     57 H24        -0.8468   -8.6606   12.3593 H         1 <0>         0.0715
     58 H25         0.7060   -9.2324   11.7034 H         1 <0>         0.0665
     59 H26         0.6826   -8.0180   13.0044 H         1 <0>         0.0715
     60 H27        -0.9148   -5.5555   13.3113 H         1 <0>         0.0726
     61 H28         0.6466   -6.3881   13.5040 H         1 <0>         0.0717
     62 H29         0.6060   -4.6532   13.1081 H         1 <0>         0.0671
@<TRIPOS>BOND
     1    1    2 1
     2    1   35 1
     3    1   36 1
     4    1   37 1
     5    2    7 ar
     6    2    3 ar
     7    3    4 ar
     8    3   38 1
     9    4    5 ar
    10    4   39 1
    11    5    6 ar
    12    5   40 1
    13    6    7 ar
    14    6    9 1
    15    7    8 1
    16    8   41 1
    17    8   42 1
    18    8   43 1
    19    9   10 1
    20   10   11 1
    21   10   44 1
    22   10   45 1
    23   11   12 2
    24   11   13 am
    25   13   14 1
    26   13   46 1
    27   14   18 1
    28   14   15 2
    29   15   16 1
    30   15   47 1
    31   16   17 2
    32   16   27 1
    33   17   18 1
    34   18   19 1
    35   19   20 1
    36   19   26 1
    37   19   21 1
    38   21   22 1
    39   21   48 1
    40   21   49 1
    41   22   23 1
    42   22   50 1
    43   22   51 1
    44   23   24 2
    45   23   25 2
    46   23   26 1
    47   26   52 1
    48   26   53 1
    49   27   32 ar
    50   27   28 ar
    51   28   29 ar
    52   28   54 1
    53   29   30 ar
    54   29   55 1
    55   30   31 ar
    56   30   34 1
    57   31   32 ar
    58   31   33 1
    59   32   56 1
    60   33   57 1
    61   33   58 1
    62   33   59 1
    63   34   60 1
    64   34   61 1
    65   34   62 1
@<TRIPOS>MOLECULE
ZINC08549596
   47    49     0     0     0
SMALL
USER_CHARGES
4-(acetoxymethyl)-8-(2,5-dimethylbenzoyl)amino-7-oxo-2-thia-6-azabicyclo[4.2.0]oct-4-ene-5-carboxylic acid
@<TRIPOS>ATOM
      1 C1        -11.0017    4.3162   -4.5610 C.3       1 <0>        -0.1145
      2 C2        -11.1391    4.6893   -3.1074 C.ar      1 <0>        -0.1017
      3 C3        -12.3959    4.8014   -2.5392 C.ar      1 <0>        -0.0892
      4 C4        -12.5308    5.1439   -1.2057 C.ar      1 <0>        -0.1278
      5 C5        -11.4112    5.3699   -0.4316 C.ar      1 <0>        -0.0235
      6 C6        -10.1409    5.2642   -0.9999 C.ar      1 <0>        -0.1332
      7 C7        -10.0119    4.9187   -2.3463 C.ar      1 <0>        -0.0805
      8 C8         -8.9370    5.5111   -0.1780 C.2       1 <0>         0.5663
      9 O1         -9.0520    5.9184    0.9614 O.2       1 <0>        -0.5170
     10 N1         -7.7120    5.2844   -0.6922 N.am      1 <0>        -0.7069
     11 C9         -6.5190    5.5290    0.1222 C.3       1 <0>         0.1285
     12 H1         -6.6920    6.2459    0.9248 H         1 <0>         0.1585
     13 C10        -5.2669    5.8194   -0.6984 C.3       1 <0>         0.1313
     14 H2         -5.3770    5.7157   -1.7779 H         1 <0>         0.1356
     15 N2         -4.6612    4.6615    0.0333 N.am      1 <0>        -0.5549
     16 C11        -5.8218    4.2588    0.5791 C.2       1 <0>         0.5327
     17 O2         -6.1728    3.2731    1.1925 O.2       1 <0>        -0.4395
     18 C12        -3.2919    4.3649    0.1367 C.2       1 <0>         0.1026
     19 C13        -2.3871    5.3088   -0.0741 C.2       1 <0>        -0.1642
     20 C14        -2.6041    6.7269   -0.4910 C.3       1 <0>        -0.0160
     21 S1         -4.3080    7.2793   -0.1704 S.3       1 <0>        -0.2365
     22 C15        -0.9514    4.8971    0.1268 C.3       1 <0>         0.1357
     23 O3         -0.0890    6.0539   -0.0354 O.3       1 <0>        -0.3841
     24 C16         1.2349    5.8395    0.0199 C.2       1 <0>         0.4531
     25 O4          1.6614    4.7122    0.1045 O.2       1 <0>        -0.5056
     26 C17         2.1892    7.0053   -0.0172 C.3       1 <0>        -0.1452
     27 C18        -2.8605    2.9995    0.4866 C.2       1 <0>         0.4859
     28 O5         -3.6803    2.1068    0.5734 O.co2     1 <0>        -0.5946
     29 C19       -11.5598    5.7368    1.0224 C.3       1 <0>        -0.1230
     30 H3        -10.9403    3.2319   -4.6536 H         1 <0>         0.0722
     31 H4        -11.8687    4.6795   -5.1128 H         1 <0>         0.0671
     32 H5        -10.0968    4.7675   -4.9679 H         1 <0>         0.0680
     33 H6        -13.2754    4.6211   -3.1395 H         1 <0>         0.1263
     34 H7        -13.5145    5.2300   -0.7683 H         1 <0>         0.1296
     35 H8         -9.0316    4.8316   -2.7911 H         1 <0>         0.1260
     36 H9         -7.6202    4.9593   -1.6015 H         1 <0>         0.4059
     37 H10        -1.9146    7.3673    0.0590 H         1 <0>         0.1303
     38 H11        -2.3980    6.8182   -1.5574 H         1 <0>         0.0967
     39 H12        -0.6844    4.1388   -0.6092 H         1 <0>         0.0952
     40 H13        -0.8274    4.4893    1.1300 H         1 <0>         0.1159
     41 H14         3.2076    6.6461    0.1316 H         1 <0>         0.0951
     42 H15         2.1172    7.5032   -0.9841 H         1 <0>         0.0943
     43 H16         1.9332    7.7097    0.7742 H         1 <0>         0.0937
     44 H17       -11.5001    6.8197    1.1319 H         1 <0>         0.0763
     45 H18       -12.5251    5.3873    1.3885 H         1 <0>         0.0577
     46 H19       -10.7616    5.2689    1.5987 H         1 <0>         0.0963
     47 O6         -1.5568    2.7412    0.7103 O.co2     1 <0>        -0.7188
@<TRIPOS>BOND
     1    1    2 1
     2    1   30 1
     3    1   31 1
     4    1   32 1
     5    2    7 ar
     6    2    3 ar
     7    3    4 ar
     8    3   33 1
     9    4    5 ar
    10    4   34 1
    11    5    6 ar
    12    5   29 1
    13    6    7 ar
    14    6    8 1
    15    7   35 1
    16    8    9 2
    17    8   10 am
    18   10   11 1
    19   10   36 1
    20   11   12 1
    21   11   16 1
    22   11   13 1
    23   13   14 1
    24   13   21 1
    25   13   15 1
    26   15   16 am
    27   15   18 1
    28   16   17 2
    29   18   19 2
    30   18   27 1
    31   19   20 1
    32   19   22 1
    33   20   21 1
    34   20   37 1
    35   20   38 1
    36   22   23 1
    37   22   39 1
    38   22   40 1
    39   23   24 1
    40   24   25 2
    41   24   26 1
    42   26   41 1
    43   26   42 1
    44   26   43 1
    45   27   28 2
    46   27   47 1
    47   29   44 1
    48   29   45 1
    49   29   46 1
@<TRIPOS>MOLECULE
ZINC13405417
   41    43     0     0     0
SMALL
USER_CHARGES
2-[[4-allyl-5-[(3S)-1,1-dioxothiolan-3-yl]-1,2,4-triazol-3-yl]sulfanylmethyl]furan-3-carboxylic acid
@<TRIPOS>ATOM
      1 C1         -2.1404    8.7128    5.3263 C.2       1 <0>        -0.1619
      2 C2         -2.0293    7.8110    4.3826 C.2       1 <0>        -0.1786
      3 C3         -3.2521    7.0801    3.8912 C.3       1 <0>         0.1286
      4 N1         -3.3628    7.2351    2.4386 N.pl3     1 <0>        -0.4574
      5 C4         -4.0215    8.2240    1.7615 C.2       1 <0>         0.1754
      6 N2         -3.8724    7.9882    0.4887 N.2       1 <0>        -0.2701
      7 N3         -3.1656    6.9287    0.3161 N.2       1 <0>        -0.2875
      8 C5         -2.8297    6.4222    1.4798 C.2       1 <0>         0.1766
      9 S1         -1.8666    4.9722    1.7526 S.3       1 <0>         0.0240
     10 C6         -1.5498    4.4786    0.0402 C.3       1 <0>        -0.0054
     11 C7         -0.7171    3.2226    0.0254 C.2       1 <0>        -0.0055
     12 C8         -1.1985    1.9453    0.0175 C.2       1 <0>        -0.1609
     13 C9         -0.0126    1.0758    0.0080 C.2       1 <0>        -0.1767
     14 C10         1.0474    1.8982    0.0023 C.2       1 <0>        -0.0531
     15 O1          0.6180    3.1698    0.0127 O.3       1 <0>        -0.1849
     16 C11        -2.6098    1.5259    0.0209 C.2       1 <0>         0.5125
     17 O2         -3.4922    2.3616    0.0285 O.co2     1 <0>        -0.6210
     18 C12        -4.7795    9.3735    2.3740 C.3       1 <0>         0.0068
     19 H1         -4.7302    9.3014    3.4605 H         1 <0>         0.1065
     20 C13        -6.2489    9.3133    1.9246 C.3       1 <0>        -0.1248
     21 C14        -6.9269   10.6608    2.3038 C.3       1 <0>        -0.5713
     22 S2         -5.5867   11.8473    1.8669 S.o2      1 <0>         2.3727
     23 O3         -5.7783   12.2894    0.5302 O.2       1 <0>        -0.9276
     24 O4         -5.4594   12.8051    2.9088 O.2       1 <0>        -0.9387
     25 C15        -4.1430   10.7090    1.9195 C.3       1 <0>        -0.5729
     26 H2         -1.2641    9.2366    5.6785 H         1 <0>         0.1087
     27 H3         -3.1083    8.9325    5.7520 H         1 <0>         0.1020
     28 H4         -1.0614    7.5913    3.9568 H         1 <0>         0.1217
     29 H5         -4.1397    7.4943    4.3694 H         1 <0>         0.1031
     30 H6         -3.1666    6.0219    4.1382 H         1 <0>         0.1126
     31 H7         -1.0137    5.2759   -0.4745 H         1 <0>         0.1031
     32 H8         -2.4972    4.2924   -0.4655 H         1 <0>         0.1458
     33 H9          0.0021   -0.0041    0.0020 H         1 <0>         0.1537
     34 H10         2.0814    1.5866   -0.0093 H         1 <0>         0.2017
     35 H11        -6.2981    9.1672    0.8456 H         1 <0>         0.1057
     36 H12        -6.7552    8.4912    2.4305 H         1 <0>         0.1051
     37 H13        -7.8195   10.8357    1.7031 H         1 <0>         0.1465
     38 H14        -7.1568   10.7005    3.3686 H         1 <0>         0.1405
     39 H15        -3.4061   11.0527    2.6454 H         1 <0>         0.1449
     40 H16        -3.6950   10.6071    0.9310 H         1 <0>         0.1520
     41 O5         -2.9233    0.2151    0.0155 O.co2     1 <0>        -0.7518
@<TRIPOS>BOND
     1    1    2 2
     2    1   26 1
     3    1   27 1
     4    2    3 1
     5    2   28 1
     6    3    4 1
     7    3   29 1
     8    3   30 1
     9    4    8 1
    10    4    5 1
    11    5    6 2
    12    5   18 1
    13    6    7 1
    14    7    8 2
    15    8    9 1
    16    9   10 1
    17   10   11 1
    18   10   31 1
    19   10   32 1
    20   11   15 1
    21   11   12 2
    22   12   13 1
    23   12   16 1
    24   13   14 2
    25   13   33 1
    26   14   15 1
    27   14   34 1
    28   16   17 2
    29   16   41 1
    30   18   19 1
    31   18   25 1
    32   18   20 1
    33   20   21 1
    34   20   35 1
    35   20   36 1
    36   21   22 1
    37   21   37 1
    38   21   38 1
    39   22   23 2
    40   22   24 2
    41   22   25 1
    42   25   39 1
    43   25   40 1
@<TRIPOS>MOLECULE
ZINC34779110
   46    47     0     0     0
SMALL
USER_CHARGES

@<TRIPOS>ATOM
      1 C1         -0.0187    1.5258    0.0104 C.3       1 <0>        -0.1761
      2 C2          0.0021   -0.0041    0.0020 C.3       1 <0>         0.1015
      3 N1          0.6878   -0.4765   -1.2033 N.am      1 <0>        -0.6129
      4 C3          2.1353   -0.7012   -1.1821 C.3       1 <0>         0.1125
      5 C4          2.4212   -2.1448   -0.7635 C.3       1 <0>        -0.1665
      6 C5         -0.0130   -0.7045   -2.3317 C.2       1 <0>         0.5091
      7 O1          0.5546   -1.0956   -3.3296 O.2       1 <0>        -0.5210
      8 C6         -1.5021   -0.4734   -2.3536 C.3       1 <0>         0.0937
      9 N2         -2.0260   -0.7905   -3.6844 N.am      1 <0>        -0.5398
     10 C7         -2.0772    0.1787   -4.6150 C.2       1 <0>         0.5844
     11 O2         -1.6931    1.3035   -4.3548 O.2       1 <0>        -0.5006
     12 C8         -2.6077   -0.1411   -5.9637 C.2       1 <0>        -0.2449
     13 C9         -2.7481    0.7059   -7.0676 C.2       1 <0>        -0.0235
     14 C10        -3.2735    0.1520   -8.2147 C.2       1 <0>        -0.2074
     15 S1         -3.5622   -1.5389   -7.7338 S.3       1 <0>         0.2746
     16 C11        -3.0218   -1.4683   -6.1541 C.2       1 <0>         0.0031
     17 N3         -2.9316   -2.3861   -5.1466 N.am      1 <0>        -0.4858
     18 C12        -2.4368   -2.0423   -3.9432 C.2       1 <0>         0.7175
     19 O3         -2.3645   -2.8837   -3.0685 O.2       1 <0>        -0.5460
     20 C13        -3.3737   -3.7631   -5.3805 C.3       1 <0>         0.1406
     21 C14        -2.2172   -4.5817   -5.8936 C.2       1 <0>        -0.1832
     22 C15        -1.8695   -5.6834   -5.2759 C.2       1 <0>        -0.1541
     23 C16        -3.5223    0.7720   -9.4634 C.2       1 <0>         0.5568
     24 O4         -3.2608    1.9585   -9.6212 O.co2     1 <0>        -0.6590
     25 O5         -3.9990    0.1218  -10.3860 O.co2     1 <0>        -0.6828
     26 C17        -2.3442    2.1565   -7.0054 C.3       1 <0>        -0.0973
     27 H1          1.0039    1.9031    0.0027 H         1 <0>         0.0603
     28 H2         -0.5459    1.8868   -0.8726 H         1 <0>         0.0622
     29 H3         -0.5289    1.8773    0.9072 H         1 <0>         0.0700
     30 H4          0.5293   -0.3651    0.8851 H         1 <0>         0.0830
     31 H5         -1.0205   -0.3814    0.0098 H         1 <0>         0.0795
     32 H6          2.5453   -0.5232   -2.1762 H         1 <0>         0.0831
     33 H7          2.5986   -0.0180   -0.4703 H         1 <0>         0.0769
     34 H8          2.0113   -2.3228    0.2307 H         1 <0>         0.0548
     35 H9          1.9579   -2.8280   -1.4752 H         1 <0>         0.0593
     36 H10         3.4982   -2.3119   -0.7477 H         1 <0>         0.0652
     37 H11        -1.9801   -1.1142   -1.6127 H         1 <0>         0.1268
     38 H12        -1.7112    0.5706   -2.1201 H         1 <0>         0.1281
     39 H13        -3.7363   -4.1919   -4.4463 H         1 <0>         0.1079
     40 H14        -4.1767   -3.7665   -6.1176 H         1 <0>         0.1027
     41 H15        -1.6751   -4.2602   -6.7706 H         1 <0>         0.1170
     42 H16        -1.0407   -6.2701   -5.6436 H         1 <0>         0.1028
     43 H17        -2.4117   -6.0049   -4.3989 H         1 <0>         0.1010
     44 H18        -1.3003    2.2560   -7.3027 H         1 <0>         0.0644
     45 H19        -2.9716    2.7376   -7.6813 H         1 <0>         0.0970
     46 H20        -2.4687    2.5249   -5.9871 H         1 <0>         0.0650
@<TRIPOS>BOND
     1    1    2 1
     2    1   27 1
     3    1   28 1
     4    1   29 1
     5    2    3 1
     6    2   30 1
     7    2   31 1
     8    3    4 1
     9    3    6 am
    10    4    5 1
    11    4   32 1
    12    4   33 1
    13    5   34 1
    14    5   35 1
    15    5   36 1
    16    6    7 2
    17    6    8 1
    18    8    9 1
    19    8   37 1
    20    8   38 1
    21    9   18 am
    22    9   10 am
    23   10   11 2
    24   10   12 1
    25   12   16 2
    26   12   13 1
    27   13   14 2
    28   13   26 1
    29   14   15 1
    30   14   23 1
    31   15   16 1
    32   16   17 1
    33   17   18 am
    34   17   20 1
    35   18   19 2
    36   20   21 1
    37   20   39 1
    38   20   40 1
    39   21   22 2
    40   21   41 1
    41   22   42 1
    42   22   43 1
    43   23   24 2
    44   23   25 1
    45   26   44 1
    46   26   45 1
    47   26   46 1
@<TRIPOS>MOLECULE
ZINC40129664
   36    37     0     0     0
SMALL
USER_CHARGES

@<TRIPOS>ATOM
      1 C1         -0.0167    1.3789    0.0096 C.ar      1 <0>        -0.0486
      2 C2          1.1709    2.0862    0.0021 C.ar      1 <0>        -0.1129
      3 C3          2.3778    1.4110   -0.0130 C.ar      1 <0>         0.0158
      4 C4          2.3966    0.0277   -0.0206 C.ar      1 <0>        -0.6052
      5 C5          1.2095   -0.6794   -0.0126 C.ar      1 <0>         0.0048
      6 C6          0.0021   -0.0041    0.0020 C.ar      1 <0>        -0.1048
      7 Br1        -1.6225   -0.9718    0.0129 Br        1 <0>        -0.0435
      8 S1          3.9343   -0.8324   -0.0410 S.o2      1 <0>         2.6329
      9 O1          4.7366   -0.2543    0.9794 O.2       1 <0>        -0.9802
     10 O2          3.6238   -2.2188   -0.0723 O.2       1 <0>        -1.0011
     11 N1          4.6732   -0.4803   -1.4806 N.2       1 <0>        -1.0424
     12 C7          5.8276   -0.9877   -1.7543 C.2       1 <0>         0.4897
     13 O3          6.4326   -1.8052   -0.8677 O.3       1 <0>        -0.7273
     14 C8          6.5000   -0.6673   -3.0644 C.3       1 <0>        -0.0771
     15 C9          5.6091    0.2732   -3.8783 C.3       1 <0>        -0.1140
     16 C10         6.2918    0.5985   -5.2084 C.3       1 <0>         0.1117
     17 N2          5.4386    1.4990   -5.9878 N.am      1 <0>        -0.5711
     18 C11         4.4960    1.0850   -6.8574 C.2       1 <0>         0.5183
     19 O4          4.2050   -0.0595   -7.1319 O.2       1 <0>        -0.4672
     20 C12         3.8746    2.3479   -7.4201 C.3       1 <0>         0.0623
     21 N3          4.6081    3.4282   -6.7383 N.am      1 <0>        -0.7337
     22 C13         5.4952    2.8340   -5.9199 C.2       1 <0>         0.7004
     23 O5          6.2643    3.4420   -5.2016 O.2       1 <0>        -0.5377
     24 Br2         4.0024    2.3787   -0.0240 Br        1 <0>        -0.0005
     25 H1         -0.9591    1.9060    0.0259 H         1 <0>         0.1439
     26 H2          1.1562    3.1661    0.0076 H         1 <0>         0.1462
     27 H3          1.2241   -1.7593   -0.0188 H         1 <0>         0.1565
     28 H4          7.4582   -0.1845   -2.8724 H         1 <0>         0.0815
     29 H5          6.6630   -1.5884   -3.6240 H         1 <0>         0.0807
     30 H6          4.6509   -0.2097   -4.0703 H         1 <0>         0.0757
     31 H7          5.4461    1.1942   -3.3187 H         1 <0>         0.0800
     32 H8          7.2499    1.0813   -5.0164 H         1 <0>         0.0942
     33 H9          6.4547   -0.3226   -5.7680 H         1 <0>         0.0924
     34 H10         4.0262    2.4024   -8.4982 H         1 <0>         0.1201
     35 H11         2.8127    2.3934   -7.1784 H         1 <0>         0.1213
     36 H12         4.4753    4.3820   -6.8546 H         1 <0>         0.4389
@<TRIPOS>BOND
     1    1    6 ar
     2    1    2 ar
     3    1   25 1
     4    2    3 ar
     5    2   26 1
     6    3    4 ar
     7    3   24 1
     8    4    5 ar
     9    4    8 1
    10    5    6 ar
    11    5   27 1
    12    6    7 1
    13    8    9 2
    14    8   10 2
    15    8   11 1
    16   11   12 2
    17   12   13 1
    18   12   14 1
    19   14   15 1
    20   14   28 1
    21   14   29 1
    22   15   16 1
    23   15   30 1
    24   15   31 1
    25   16   17 1
    26   16   32 1
    27   16   33 1
    28   17   22 am
    29   17   18 am
    30   18   19 2
    31   18   20 1
    32   20   21 1
    33   20   34 1
    34   20   35 1
    35   21   22 am
    36   21   36 1
    37   22   23 2
@<TRIPOS>MOLECULE
ZINC51839951
   50    52     0     0     0
SMALL
USER_CHARGES

@<TRIPOS>ATOM
      1 C1          4.0692    2.0860    0.5879 C.3       1 <0>        -0.1523
      2 C2          2.8663    1.2656    0.1183 C.3       1 <0>        -0.1225
      3 C3          3.2741    0.4000   -1.0756 C.3       1 <0>        -0.1151
      4 C4          2.0711   -0.4205   -1.5453 C.3       1 <0>        -0.0026
      5 C5          2.4728   -1.2730   -2.7212 C.2       1 <0>        -0.0784
      6 N1          2.9534   -2.4973   -2.7295 N.2       1 <0>        -0.2736
      7 N2          3.2497   -3.0963   -3.8021 N.2       1 <0>        -0.3239
      8 C6          3.0668   -2.4608   -4.9596 C.2       1 <0>         0.3260
      9 S1          2.4150   -0.9061   -4.3655 S.3       1 <0>        -0.0199
     10 N3          3.3022   -2.8764   -6.2241 N.2       1 <0>        -0.5992
     11 C7          3.7834   -4.0732   -6.4403 C.2       1 <0>         0.4172
     12 O1          4.0457   -4.8957   -5.3977 O.3       1 <0>        -0.6158
     13 C8          4.0410   -4.5280   -7.8243 C.2       1 <0>         0.5778
     14 O2          5.1806   -4.7299   -8.1954 O.2       1 <0>        -0.5339
     15 N4          3.0120   -4.7186   -8.6736 N.am      1 <0>        -0.6001
     16 C9          1.6407   -4.3693   -8.2784 C.3       1 <0>         0.1093
     17 C10         0.7407   -5.5911   -8.4882 C.3       1 <0>        -0.1379
     18 C11         0.8741   -6.0757   -9.9337 C.3       1 <0>        -0.0957
     19 C12         2.3224   -6.4907  -10.2028 C.3       1 <0>        -0.1245
     20 H1          2.6105   -7.2783   -9.5066 H         1 <0>         0.1047
     21 C13         3.2410   -5.2738  -10.0145 C.3       1 <0>         0.1245
     22 C14         2.4457   -6.9988  -11.6162 C.2       1 <0>         0.5303
     23 O3          1.4713   -7.0265  -12.3378 O.2       1 <0>        -0.5355
     24 N5          3.6388   -7.4224  -12.0783 N.am      1 <0>        -0.7041
     25 C15         3.7586   -7.9163  -13.4523 C.3       1 <0>         0.0792
     26 C16         4.5805   -9.1871  -13.6770 C.3       1 <0>        -0.1947
     27 C17         5.1342   -7.8302  -14.1165 C.3       1 <0>        -0.1896
     28 H2          4.8741    1.4136    0.8848 H         1 <0>         0.0535
     29 H3          4.4119    2.7264   -0.2248 H         1 <0>         0.0530
     30 H4          3.7787    2.7027    1.4385 H         1 <0>         0.0509
     31 H5          2.5236    0.6252    0.9311 H         1 <0>         0.0621
     32 H6          2.0614    1.9380   -0.1785 H         1 <0>         0.0610
     33 H7          3.6168    1.0404   -1.8884 H         1 <0>         0.0630
     34 H8          4.0789   -0.2724   -0.7788 H         1 <0>         0.0666
     35 H9          1.7284   -1.0608   -0.7325 H         1 <0>         0.0838
     36 H10         1.2662    0.2520   -1.8421 H         1 <0>         0.0762
     37 H11         1.6256   -4.0805   -7.2274 H         1 <0>         0.0986
     38 H12         1.2830   -3.5423   -8.8918 H         1 <0>         0.0734
     39 H13         1.0437   -6.3872   -7.8081 H         1 <0>         0.0694
     40 H14        -0.2957   -5.3178   -8.2903 H         1 <0>         0.0809
     41 H15         0.2161   -6.9301  -10.0924 H         1 <0>         0.0724
     42 H16         0.5946   -5.2710  -10.6137 H         1 <0>         0.0731
     43 H17         3.0112   -4.5192  -10.7666 H         1 <0>         0.0745
     44 H18         4.2822   -5.5821  -10.1094 H         1 <0>         0.0944
     45 H19         4.4181   -7.4002  -11.5012 H         1 <0>         0.4052
     46 H20         2.8840   -7.7639  -14.0847 H         1 <0>         0.1375
     47 H21         5.0321   -9.6556  -12.8026 H         1 <0>         0.0975
     48 H22         4.2466   -9.8711  -14.4573 H         1 <0>         0.1012
     49 H23         5.1646   -7.6215  -15.1859 H         1 <0>         0.1029
     50 H24         5.9501   -7.4060  -13.5312 H         1 <0>         0.0993
@<TRIPOS>BOND
     1    1    2 1
     2    1   28 1
     3    1   29 1
     4    1   30 1
     5    2    3 1
     6    2   31 1
     7    2   32 1
     8    3    4 1
     9    3   33 1
    10    3   34 1
    11    4    5 1
    12    4   35 1
    13    4   36 1
    14    5    9 1
    15    5    6 2
    16    6    7 1
    17    7    8 2
    18    8    9 1
    19    8   10 1
    20   10   11 2
    21   11   12 1
    22   11   13 1
    23   13   14 2
    24   13   15 am
    25   15   21 1
    26   15   16 1
    27   16   17 1
    28   16   37 1
    29   16   38 1
    30   17   18 1
    31   17   39 1
    32   17   40 1
    33   18   19 1
    34   18   41 1
    35   18   42 1
    36   19   20 1
    37   19   21 1
    38   19   22 1
    39   21   43 1
    40   21   44 1
    41   22   23 2
    42   22   24 am
    43   24   25 1
    44   24   45 1
    45   25   27 1
    46   25   26 1
    47   25   46 1
    48   26   27 1
    49   26   47 1
    50   26   48 1
    51   27   49 1
    52   27   50 1
@<TRIPOS>MOLECULE
ZINC67135680
   37    39     0     0     0
SMALL
USER_CHARGES

@<TRIPOS>ATOM
      1 C1         -0.0167    1.3794    0.0096 C.ar      1 <0>        -0.1547
      2 C2          1.1665    2.0885    0.0021 C.ar      1 <0>        -0.0185
      3 C3          2.3854    1.4066   -0.0131 C.ar      1 <0>        -0.0668
      4 C4          2.3967    0.0096   -0.0207 C.ar      1 <0>         0.0185
      5 C5          1.2061   -0.6863   -0.0130 C.ar      1 <0>        -0.6742
      6 C6          0.0021   -0.0041    0.0020 C.ar      1 <0>        -0.0258
      7 S1          1.2179   -2.4482   -0.0226 S.o2      1 <0>         2.5027
      8 O1         -0.0199   -2.8159   -0.6156 O.2       1 <0>        -0.9230
      9 O2          2.4492   -2.7993   -0.6391 O.2       1 <0>        -0.9126
     10 C7          1.2378   -2.9238    1.7279 C.3       1 <0>        -0.6890
     11 C8          1.2491   -4.4495    1.8418 C.3       1 <0>         0.2759
     12 F1          0.1045   -4.9714    1.2297 F         1 <0>        -0.1919
     13 F2          2.3889   -4.9559    1.2081 F         1 <0>        -0.1889
     14 C9          3.6555    2.1585   -0.0217 C.2       1 <0>         0.4519
     15 O3          4.8328    1.4957   -0.0364 O.3       1 <0>        -0.6454
     16 N1          3.6413    3.4710   -0.0150 N.2       1 <0>        -0.6537
     17 C10         4.8108    4.1632   -0.0229 C.2       1 <0>         0.5239
     18 N2          6.0232    3.6411   -0.0377 N.2       1 <0>        -0.5370
     19 H1          4.2226    6.1714   -0.0167 H         1 <0>         0.4293
     20 C11         6.9361    4.6216   -0.0415 C.2       1 <0>         0.2778
     21 N3          6.3191    5.7849   -0.0291 N.2       1 <0>        -0.3345
     22 N4          4.9403    5.5189   -0.0228 N.pl3     1 <0>        -0.5094
     23 C12         8.4015    4.4286   -0.0571 C.2       1 <0>         0.0954
     24 C13         9.3362    5.4156   -0.0556 C.2       1 <0>        -0.1830
     25 C14        10.5952    4.7826   -0.0733 C.2       1 <0>        -0.2190
     26 C15        10.3690    3.4544   -0.0846 C.2       1 <0>        -0.0391
     27 O4          9.0426    3.2441   -0.0694 O.3       1 <0>        -0.1507
     28 H2         -0.9599    1.9052    0.0260 H         1 <0>         0.1325
     29 H3          1.1504    3.1684    0.0077 H         1 <0>         0.1463
     30 H4          3.3356   -0.5240   -0.0328 H         1 <0>         0.1525
     31 H5         -0.9273   -0.5542    0.0079 H         1 <0>         0.1379
     32 H6          2.1296   -2.5171    2.2048 H         1 <0>         0.1682
     33 H7          0.3498   -2.5292    2.2217 H         1 <0>         0.1650
     34 H8          1.2611   -4.7352    2.8936 H         1 <0>         0.1362
     35 H9          9.1499    6.4794   -0.0436 H         1 <0>         0.1523
     36 H10        11.5590    5.2699   -0.0776 H         1 <0>         0.1485
     37 H11        11.1282    2.6865   -0.0995 H         1 <0>         0.2026
@<TRIPOS>BOND
     1    1    6 ar
     2    1    2 ar
     3    1   28 1
     4    2    3 ar
     5    2   29 1
     6    3    4 ar
     7    3   14 1
     8    4    5 ar
     9    4   30 1
    10    5    6 ar
    11    5    7 1
    12    6   31 1
    13    7    8 2
    14    7    9 2
    15    7   10 1
    16   10   11 1
    17   10   32 1
    18   10   33 1
    19   11   12 1
    20   11   13 1
    21   11   34 1
    22   14   15 1
    23   14   16 2
    24   16   17 1
    25   17   18 2
    26   17   22 1
    27   18   20 1
    28   19   22 1
    29   20   23 1
    30   20   21 2
    31   21   22 1
    32   23   27 1
    33   23   24 2
    34   24   25 1
    35   24   35 1
    36   25   26 2
    37   25   36 1
    38   26   27 1
    39   26   37 1
@<TRIPOS>MOLECULE
ZINC13260547
   57    59     0     0     0
SMALL
USER_CHARGES
(3R)-1-[3-ethoxy-4-(2-morpholino-2-oxo-ethoxy)benzoyl]piperidine-3-carboxylic acid
@<TRIPOS>ATOM
      1 C1         -3.3247   -0.9584    1.3047 C.3       1 <0>        -0.1495
      2 C2         -2.1858    0.0083    0.9740 C.3       1 <0>         0.0489
      3 O1         -1.0207   -0.7349    0.6104 O.3       1 <0>        -0.3006
      4 C3          0.0902   -0.0212    0.2845 C.ar      1 <0>         0.1074
      5 C4          0.0576    1.3595    0.3145 C.ar      1 <0>        -0.1245
      6 C5          1.2009    2.0896   -0.0204 C.ar      1 <0>        -0.1089
      7 C6          2.3718    1.4202   -0.3842 C.ar      1 <0>        -0.0866
      8 C7          2.3977    0.0428   -0.4122 C.ar      1 <0>        -0.1789
      9 C8          1.2619   -0.6829   -0.0794 C.ar      1 <0>         0.1115
     10 O2          1.2924   -2.0402   -0.1089 O.3       1 <0>        -0.2756
     11 C9          2.5254   -2.6534   -0.4906 C.3       1 <0>         0.0402
     12 C10         2.3699   -4.1521   -0.4661 C.2       1 <0>         0.5212
     13 O3          1.3077   -4.6465   -0.1526 O.2       1 <0>        -0.5064
     14 N1          3.4112   -4.9431   -0.7925 N.am      1 <0>        -0.6179
     15 C11         4.7077   -4.3663   -1.1821 C.3       1 <0>         0.0682
     16 C12         5.8044   -5.0435   -0.3447 C.3       1 <0>         0.0461
     17 O4          5.6789   -6.4623   -0.4670 O.3       1 <0>        -0.3778
     18 C13         4.4479   -6.9866    0.0366 C.3       1 <0>         0.0474
     19 C14         3.2834   -6.4090   -0.7758 C.3       1 <0>         0.0787
     20 C15         1.1713    3.5651    0.0095 C.2       1 <0>         0.5558
     21 O5          0.2848    4.1672   -0.5648 O.2       1 <0>        -0.5327
     22 N2          2.1271    4.2449    0.6735 N.am      1 <0>        -0.5990
     23 C16         3.2468    3.5356    1.3075 C.3       1 <0>         0.0968
     24 C17         3.3304    3.9493    2.7757 C.3       1 <0>        -0.1358
     25 C18         3.4181    5.4743    2.8695 C.3       1 <0>        -0.0969
     26 C19         2.1597    6.0977    2.2612 C.3       1 <0>        -0.1406
     27 H1          1.2797    5.7318    2.7902 H         1 <0>         0.0712
     28 C20         2.0658    5.7088    0.7824 C.3       1 <0>         0.1355
     29 C21         2.2323    7.5980    2.3832 C.2       1 <0>         0.4676
     30 O6          3.1905    8.1159    2.9059 O.co2     1 <0>        -0.6362
     31 H2         -3.0282   -1.5986    2.1355 H         1 <0>         0.0660
     32 H3         -4.2134   -0.3915    1.5820 H         1 <0>         0.0786
     33 H4         -3.5439   -1.5737    0.4321 H         1 <0>         0.0661
     34 H5         -1.9666    0.6236    1.8466 H         1 <0>         0.0639
     35 H6         -2.4823    0.6485    0.1432 H         1 <0>         0.0650
     36 H7         -0.8509    1.8735    0.5920 H         1 <0>         0.1446
     37 H8          3.2568    1.9823   -0.6436 H         1 <0>         0.1377
     38 H9          3.3036   -0.4734   -0.6940 H         1 <0>         0.1390
     39 H10         2.7945   -2.3324   -1.4970 H         1 <0>         0.0949
     40 H11         3.3093   -2.3579    0.2068 H         1 <0>         0.0945
     41 H12         4.8865   -4.5475   -2.2419 H         1 <0>         0.0853
     42 H13         4.7055   -3.2937   -0.9878 H         1 <0>         0.0946
     43 H14         5.6962   -4.7573    0.7015 H         1 <0>         0.0596
     44 H15         6.7837   -4.7319   -0.7080 H         1 <0>         0.1105
     45 H16         4.3348   -6.7075    1.0842 H         1 <0>         0.0583
     46 H17         4.4510   -8.0729   -0.0532 H         1 <0>         0.1095
     47 H18         2.3376   -6.6897   -0.3124 H         1 <0>         0.1043
     48 H19         3.3213   -6.7924   -1.7955 H         1 <0>         0.0794
     49 H20         3.0825    2.4601    1.2411 H         1 <0>         0.0882
     50 H21         4.1772    3.7971    0.8035 H         1 <0>         0.0696
     51 H22         4.2161    3.5053    3.2301 H         1 <0>         0.0709
     52 H23         2.4397    3.6031    3.2999 H         1 <0>         0.0620
     53 H24         4.2955    5.8218    2.3241 H         1 <0>         0.0633
     54 H25         3.5004    5.7696    3.9155 H         1 <0>         0.0656
     55 H26         2.8980    6.1511    0.2347 H         1 <0>         0.0648
     56 H27         1.1237    6.0670    0.3674 H         1 <0>         0.0998
     57 O7          1.2323    8.3588    1.9111 O.co2     1 <0>        -0.7647
@<TRIPOS>BOND
     1    1    2 1
     2    1   31 1
     3    1   32 1
     4    1   33 1
     5    2    3 1
     6    2   34 1
     7    2   35 1
     8    3    4 1
     9    4    9 ar
    10    4    5 ar
    11    5    6 ar
    12    5   36 1
    13    6    7 ar
    14    6   20 1
    15    7    8 ar
    16    7   37 1
    17    8    9 ar
    18    8   38 1
    19    9   10 1
    20   10   11 1
    21   11   12 1
    22   11   39 1
    23   11   40 1
    24   12   13 2
    25   12   14 am
    26   14   19 1
    27   14   15 1
    28   15   16 1
    29   15   41 1
    30   15   42 1
    31   16   17 1
    32   16   43 1
    33   16   44 1
    34   17   18 1
    35   18   19 1
    36   18   45 1
    37   18   46 1
    38   19   47 1
    39   19   48 1
    40   20   21 2
    41   20   22 am
    42   22   28 1
    43   22   23 1
    44   23   24 1
    45   23   49 1
    46   23   50 1
    47   24   25 1
    48   24   51 1
    49   24   52 1
    50   25   26 1
    51   25   53 1
    52   25   54 1
    53   26   27 1
    54   26   28 1
    55   26   29 1
    56   28   55 1
    57   28   56 1
    58   29   30 2
    59   29   57 1
@<TRIPOS>MOLECULE
ZINC35058053
   53    56     0     0     0
SMALL
USER_CHARGES

@<TRIPOS>ATOM
      1 C1         -0.6508    1.4884    1.0589 C.3       1 <0>        -0.1698
      2 C2         -0.6304   -0.0184    1.0506 C.2       1 <0>         0.5143
      3 O1         -0.1411   -0.6234    1.9810 O.2       1 <0>        -0.5490
      4 N1         -1.1558   -0.6938    0.0094 N.am      1 <0>        -0.6968
      5 C3         -1.1360   -2.1586    0.0013 C.3       1 <0>         0.1175
      6 H1         -0.2367   -2.5140    0.5044 H         1 <0>         0.1097
      7 C4         -2.3744   -2.6920    0.7277 C.3       1 <0>         0.0724
      8 H2         -2.4016   -2.2929    1.7417 H         1 <0>         0.0795
      9 C5         -3.6301   -2.2540   -0.0273 C.3       1 <0>         0.0689
     10 H3         -4.5099   -2.6860    0.4496 H         1 <0>         0.0847
     11 C6         -3.5502   -2.7329   -1.4805 C.3       1 <0>         0.0227
     12 H4         -3.5639   -3.8224   -1.5096 H         1 <0>         0.1164
     13 C7         -4.7600   -2.1798   -2.2446 C.3       1 <0>         0.0727
     14 O2         -4.7908   -0.7574   -2.0914 O.3       1 <0>        -0.3758
     15 C8         -4.8589   -0.3234   -0.7311 C.3       1 <0>         0.3320
     16 H5         -5.7767   -0.6963   -0.2765 H         1 <0>         0.0847
     17 O3         -3.7312   -0.8281   -0.0111 O.3       1 <0>        -0.3643
     18 C9         -4.8512    1.1829   -0.6837 C.2       1 <0>        -0.0008
     19 C10        -5.7652    1.9924   -1.2483 C.2       1 <0>        -0.1774
     20 C11        -5.3720    3.3191   -0.9582 C.2       1 <0>        -0.2164
     21 C12        -4.2414    3.2410   -0.2338 C.2       1 <0>        -0.0330
     22 O4         -3.9338    1.9445   -0.0657 O.3       1 <0>        -0.1554
     23 O5         -2.3443   -2.2503   -2.0764 O.3       1 <0>        -0.3444
     24 C13        -1.1477   -2.6633   -1.4444 C.3       1 <0>         0.0706
     25 H6         -0.2873   -2.2593   -1.9779 H         1 <0>         0.1286
     26 S1         -1.0707   -4.4757   -1.4537 S.3       1 <0>         0.0189
     27 C14        -0.7951   -4.8819   -3.1460 C.ar      1 <0>        -0.1208
     28 C15        -0.6862   -3.8730   -4.0950 C.ar      1 <0>        -0.1047
     29 C16        -0.4698   -4.1939   -5.4206 C.ar      1 <0>        -0.1372
     30 C17        -0.3612   -5.5200   -5.8043 C.ar      1 <0>         0.0777
     31 C18        -0.4693   -6.5275   -4.8603 C.ar      1 <0>        -0.1355
     32 C19        -0.6806   -6.2115   -3.5327 C.ar      1 <0>        -0.0680
     33 F1         -0.1498   -5.8315   -7.1018 F         1 <0>        -0.1458
     34 O6         -2.3203   -4.1191    0.7779 O.3       1 <0>        -0.3220
     35 C20        -1.6594   -4.6353    1.9349 C.3       1 <0>        -0.0053
     36 C21        -1.6608   -6.1415    1.8841 C.2       1 <0>         0.5035
     37 O7         -2.1797   -6.7193    0.9442 O.co2     1 <0>        -0.6646
     38 O8         -1.1430   -6.7822    2.7829 O.co2     1 <0>        -0.6951
     39 H7         -0.1851    1.8531    1.9745 H         1 <0>         0.0883
     40 H8         -0.1000    1.8640    0.1966 H         1 <0>         0.0829
     41 H9         -1.6821    1.8381    1.0118 H         1 <0>         0.0914
     42 H10        -1.5471   -0.2099   -0.7347 H         1 <0>         0.4086
     43 H11        -4.6710   -2.4317   -3.3013 H         1 <0>         0.1156
     44 H12        -5.6758   -2.6108   -1.8400 H         1 <0>         0.0784
     45 H13        -6.6325    1.6873   -1.8149 H         1 <0>         0.1512
     46 H14        -5.8816    4.2220   -1.2607 H         1 <0>         0.1503
     47 H15        -3.6786    4.0787    0.1509 H         1 <0>         0.2049
     48 H16        -0.7712   -2.8386   -3.7962 H         1 <0>         0.1325
     49 H17        -0.3854   -3.4100   -6.1587 H         1 <0>         0.1313
     50 H18        -0.3843   -7.5610   -5.1620 H         1 <0>         0.1363
     51 H19        -0.7607   -6.9973   -2.7962 H         1 <0>         0.1418
     52 H20        -0.6314   -4.2735    1.9579 H         1 <0>         0.0479
     53 H21        -2.1821   -4.3015    2.8313 H         1 <0>         0.0452
@<TRIPOS>BOND
     1    1    2 1
     2    1   39 1
     3    1   40 1
     4    1   41 1
     5    2    3 2
     6    2    4 am
     7    4    5 1
     8    4   42 1
     9    5    6 1
    10    5   24 1
    11    5    7 1
    12    7    8 1
    13    7    9 1
    14    7   34 1
    15    9   10 1
    16    9   17 1
    17    9   11 1
    18   11   12 1
    19   11   13 1
    20   11   23 1
    21   13   14 1
    22   13   43 1
    23   13   44 1
    24   14   15 1
    25   15   16 1
    26   15   17 1
    27   15   18 1
    28   18   22 1
    29   18   19 2
    30   19   20 1
    31   19   45 1
    32   20   21 2
    33   20   46 1
    34   21   22 1
    35   21   47 1
    36   23   24 1
    37   24   25 1
    38   24   26 1
    39   26   27 1
    40   27   32 ar
    41   27   28 ar
    42   28   29 ar
    43   28   48 1
    44   29   30 ar
    45   29   49 1
    46   30   31 ar
    47   30   33 1
    48   31   32 ar
    49   31   50 1
    50   32   51 1
    51   34   35 1
    52   35   36 1
    53   35   52 1
    54   35   53 1
    55   36   37 2
    56   36   38 1
@<TRIPOS>MOLECULE
ZINC40075490
   53    55     0     0     0
SMALL
USER_CHARGES

@<TRIPOS>ATOM
      1 C1         -0.0133   -1.5620   -4.0724 C.3       1 <0>        -0.0722
      2 C2          0.0778   -2.2728   -2.7467 C.2       1 <0>        -0.0086
      3 C3         -0.9519   -2.8672   -2.1019 C.2       1 <0>        -0.2234
      4 C4         -0.4405   -3.4055   -0.9122 C.2       1 <0>        -0.1546
      5 C5          0.9046   -3.1052   -0.8919 C.2       1 <0>        -0.0609
      6 O1          1.1924   -2.4227   -2.0197 O.3       1 <0>        -0.1394
      7 C6          1.8543   -3.4677    0.1641 C.2       1 <0>         0.5439
      8 O2          1.4578   -4.0128    1.1792 O.2       1 <0>        -0.4544
      9 C7          3.2827   -3.1741   -0.0012 C.2       1 <0>        -0.5002
     10 C8          4.2816   -4.0764   -0.1348 C.2       1 <0>         0.2663
     11 C9          5.5661   -3.3620   -0.2762 C.2       1 <0>         0.5131
     12 O3          6.6492   -3.8956   -0.4138 O.2       1 <0>        -0.5365
     13 N1          5.3606   -2.0332   -0.2300 N.am      1 <0>        -0.6040
     14 C10         3.9204   -1.8057   -0.0615 C.3       1 <0>         0.2649
     15 H1          3.5254   -1.2451   -0.9087 H         1 <0>         0.0864
     16 C11         3.6638   -1.0574    1.2212 C.ar      1 <0>        -0.0270
     17 C12         4.3757   -1.3822    2.3623 C.ar      1 <0>        -0.1073
     18 C13         4.1459   -0.7013    3.5397 C.ar      1 <0>        -0.0522
     19 C14         3.1922    0.3178    3.5782 C.ar      1 <0>        -0.1443
     20 C15         2.4774    0.6405    2.4230 C.ar      1 <0>        -0.0604
     21 C16         2.7213   -0.0447    1.2509 C.ar      1 <0>        -0.1254
     22 C17         2.9403    1.0511    4.8357 C.2       1 <0>         0.5126
     23 O4          3.5635    0.7679    5.8392 O.2       1 <0>        -0.5114
     24 O5          2.0196    2.0338    4.8695 O.3       1 <0>        -0.3512
     25 C18         1.8279    2.7006    6.1188 C.3       1 <0>         0.0353
     26 C19         6.3908   -0.9970   -0.3358 C.3       1 <0>         0.1387
     27 C20         6.5784   -0.6125   -1.8048 C.3       1 <0>         0.0449
     28 O6          5.3808   -0.0065   -2.2953 O.3       1 <0>        -0.3688
     29 C21         5.4503    0.3923   -3.6657 C.3       1 <0>         0.0621
     30 C22         4.1206    1.0251   -4.0809 C.3       1 <0>         0.0789
     31 O7          3.9180    2.2334   -3.3454 O.3       1 <0>        -0.5645
     32 O8          4.1279   -5.4215   -0.1381 O.3       1 <0>        -0.6531
     33 H2          0.9710   -1.1859   -4.3514 H         1 <0>         0.0744
     34 H3         -0.3658   -2.2575   -4.8341 H         1 <0>         0.0833
     35 H4         -0.7109   -0.7285   -3.9906 H         1 <0>         0.0831
     36 H5         -1.9764   -2.9175   -2.4398 H         1 <0>         0.1473
     37 H6         -0.9925   -3.9485   -0.1594 H         1 <0>         0.1528
     38 H7          5.1128   -2.1710    2.3311 H         1 <0>         0.1284
     39 H8          4.7020   -0.9561    4.4297 H         1 <0>         0.1329
     40 H9          1.7381    1.4275    2.4461 H         1 <0>         0.1334
     41 H10         2.1723    0.2068    0.3555 H         1 <0>         0.1290
     42 H11         1.5129    1.9780    6.8717 H         1 <0>         0.0594
     43 H12         2.7636    3.1651    6.4300 H         1 <0>         0.0588
     44 H13         1.0610    3.4672    6.0076 H         1 <0>         0.1004
     45 H14         6.0833   -0.1195    0.2330 H         1 <0>         0.0848
     46 H15         7.3311   -1.3775    0.0631 H         1 <0>         0.0949
     47 H16         7.4049    0.0925   -1.8931 H         1 <0>         0.0555
     48 H17         6.7990   -1.5060   -2.3889 H         1 <0>         0.0536
     49 H18         6.2535    1.1182   -3.7927 H         1 <0>         0.0512
     50 H19         5.6475   -0.4803   -4.2885 H         1 <0>         0.0603
     51 H20         4.1417    1.2482   -5.1476 H         1 <0>         0.0560
     52 H21         3.3067    0.3311   -3.8709 H         1 <0>         0.0572
     53 H22         3.0922    2.6894   -3.5579 H         1 <0>         0.3759
@<TRIPOS>BOND
     1    1    2 1
     2    1   33 1
     3    1   34 1
     4    1   35 1
     5    2    6 1
     6    2    3 2
     7    3    4 1
     8    3   36 1
     9    4    5 2
    10    4   37 1
    11    5    6 1
    12    5    7 1
    13    7    8 2
    14    7    9 1
    15    9   14 1
    16    9   10 2
    17   10   11 1
    18   10   32 1
    19   11   12 2
    20   11   13 am
    21   13   14 1
    22   13   26 1
    23   14   15 1
    24   14   16 1
    25   16   21 ar
    26   16   17 ar
    27   17   18 ar
    28   17   38 1
    29   18   19 ar
    30   18   39 1
    31   19   20 ar
    32   19   22 1
    33   20   21 ar
    34   20   40 1
    35   21   41 1
    36   22   23 2
    37   22   24 1
    38   24   25 1
    39   25   42 1
    40   25   43 1
    41   25   44 1
    42   26   27 1
    43   26   45 1
    44   26   46 1
    45   27   28 1
    46   27   47 1
    47   27   48 1
    48   28   29 1
    49   29   30 1
    50   29   49 1
    51   29   50 1
    52   30   31 1
    53   30   51 1
    54   30   52 1
    55   31   53 1
@<TRIPOS>MOLECULE
ZINC48566784
   47    48     0     0     0
SMALL
USER_CHARGES

@<TRIPOS>ATOM
      1 C1         -1.6724    2.0239    0.9068 C.3       1 <0>        -0.1720
      2 C2         -1.3760    0.5504    0.7976 C.2       1 <0>         0.5065
      3 O1         -0.2288    0.1677    0.7062 O.2       1 <0>        -0.5615
      4 N1         -2.3858   -0.3422    0.8016 N.am      1 <0>        -0.7057
      5 C3         -2.0977   -1.7747    0.6954 C.3       1 <0>         0.1817
      6 H1         -1.1678   -1.9980    1.2183 H         1 <0>         0.1018
      7 C4         -1.9588   -2.1590   -0.7790 C.3       1 <0>        -0.0850
      8 C5         -3.3143   -1.9971   -1.4973 C.3       1 <0>        -0.1312
      9 C6         -3.3590   -3.1805   -2.4956 C.3       1 <0>        -0.1212
     10 C7         -2.7034   -4.3307   -1.6916 C.3       1 <0>        -0.1229
     11 C8         -1.5704   -3.6428   -0.9025 C.3       1 <0>        -0.1248
     12 C9         -3.2240   -2.5609    1.3155 C.2       1 <0>         0.5010
     13 O2         -4.4440   -2.0005    1.4496 O.3       1 <0>        -0.7184
     14 N2         -3.0215   -3.7700    1.7183 N.2       1 <0>        -1.0314
     15 S1         -4.2842   -4.6731    2.2946 S.o2      1 <0>         2.6510
     16 O3         -4.7433   -4.0243    3.4726 O.2       1 <0>        -0.9779
     17 O4         -5.1358   -4.9337    1.1873 O.2       1 <0>        -1.0002
     18 C10        -3.6253   -6.2272    2.7999 C.ar      1 <0>        -0.6258
     19 C11        -4.0520   -7.3904    2.1857 C.ar      1 <0>         0.0125
     20 C12        -3.5370   -8.6099    2.5800 C.ar      1 <0>        -0.1885
     21 C13        -2.5904   -8.6671    3.5929 C.ar      1 <0>         0.1663
     22 C14        -2.1637   -7.4988    4.2070 C.ar      1 <0>        -0.1118
     23 C15        -2.6784   -6.2810    3.8057 C.ar      1 <0>         0.0860
     24 N3         -2.2198   -5.0337    4.4570 N.pl3     1 <0>         0.0101
     25 O5         -1.4963   -5.0874    5.4242 O.2       1 <0>        -0.1782
     26 O6         -2.5686   -3.9610    4.0219 O.3       1 <0>        -0.0594
     27 O7         -2.0825   -9.8658    3.9829 O.3       1 <0>        -0.3056
     28 C16        -2.5683  -11.0272    3.3067 C.3       1 <0>         0.0217
     29 H2         -0.7380    2.5849    0.8867 H         1 <0>         0.0862
     30 H3         -2.2990    2.3315    0.0696 H         1 <0>         0.0836
     31 H4         -2.1944    2.2211    1.8431 H         1 <0>         0.0861
     32 H5         -3.3034   -0.0361    0.8747 H         1 <0>         0.4104
     33 H6         -1.2046   -1.5345   -1.2579 H         1 <0>         0.0715
     34 H7         -4.1352   -2.0687   -0.7837 H         1 <0>         0.0929
     35 H8         -3.3526   -1.0469   -2.0301 H         1 <0>         0.0530
     36 H9         -4.3883   -3.4283   -2.7551 H         1 <0>         0.0591
     37 H10        -2.7780   -2.9540   -3.3895 H         1 <0>         0.0552
     38 H11        -3.4256   -4.7792   -1.0094 H         1 <0>         0.0738
     39 H12        -2.2959   -5.0837   -2.3662 H         1 <0>         0.0519
     40 H13        -0.6281   -3.7385   -1.4421 H         1 <0>         0.0511
     41 H14        -1.4809   -4.0891    0.0879 H         1 <0>         0.0977
     42 H15        -4.7888   -7.3453    1.3974 H         1 <0>         0.1644
     43 H16        -3.8711   -9.5181    2.1005 H         1 <0>         0.1508
     44 H17        -1.4273   -7.5408    4.9959 H         1 <0>         0.1640
     45 H18        -3.6462  -11.1058    3.4482 H         1 <0>         0.0616
     46 H19        -2.3464  -10.9474    2.2425 H         1 <0>         0.0625
     47 H20        -2.0827  -11.9142    3.7135 H         1 <0>         0.1073
@<TRIPOS>BOND
     1    1    2 1
     2    1   29 1
     3    1   30 1
     4    1   31 1
     5    2    3 2
     6    2    4 am
     7    4    5 1
     8    4   32 1
     9    5    6 1
    10    5    7 1
    11    5   12 1
    12    7   11 1
    13    7    8 1
    14    7   33 1
    15    8    9 1
    16    8   34 1
    17    8   35 1
    18    9   10 1
    19    9   36 1
    20    9   37 1
    21   10   11 1
    22   10   38 1
    23   10   39 1
    24   11   40 1
    25   11   41 1
    26   12   13 1
    27   12   14 2
    28   14   15 1
    29   15   16 2
    30   15   17 2
    31   15   18 1
    32   18   23 ar
    33   18   19 ar
    34   19   20 ar
    35   19   42 1
    36   20   21 ar
    37   20   43 1
    38   21   22 ar
    39   21   27 1
    40   22   23 ar
    41   22   44 1
    42   23   24 1
    43   24   25 2
    44   24   26 1
    45   27   28 1
    46   28   45 1
    47   28   46 1
    48   28   47 1
@<TRIPOS>MOLECULE
ZINC67245246
   50    51     0     0     0
SMALL
USER_CHARGES

@<TRIPOS>ATOM
      1 C1         -0.0187    1.5258    0.0104 C.3       1 <0>        -0.1617
      2 C2          0.0021   -0.0041    0.0020 C.3       1 <0>         0.1148
      3 N1          0.7106   -0.4894    1.1889 N.am      1 <0>        -0.7418
      4 C3          0.8538   -1.8138    1.3937 C.2       1 <0>         0.4874
      5 O1          0.3960   -2.6038    0.5954 O.2       1 <0>        -0.4858
      6 C4          1.5826   -2.3130    2.6146 C.3       1 <0>         0.1350
      7 N2          1.6025   -3.7778    2.6065 N.pl3     1 <0>        -0.3891
      8 C5          2.7017   -4.5562    2.6925 C.2       1 <0>         0.0379
      9 C6          2.3001   -5.8471    2.6515 C.2       1 <0>        -0.2669
     10 C7          0.9006   -5.8594    2.5359 C.2       1 <0>         0.3719
     11 N3          0.4835   -4.6154    2.5144 N.2       1 <0>        -0.3908
     12 N4          0.0915   -6.9994    2.4622 N.2       1 <0>        -1.0591
     13 S1         -1.5514   -6.8414    2.3276 S.o2      1 <0>         2.6107
     14 O2         -2.0046   -6.2619    3.5434 O.2       1 <0>        -1.0339
     15 O3         -1.7998   -6.2468    1.0611 O.2       1 <0>        -1.0251
     16 C8         -2.2275   -8.4672    2.2619 C.ar      1 <0>        -0.6498
     17 C9         -2.3885   -9.0989    1.0426 C.ar      1 <0>         0.0140
     18 C10        -2.9187  -10.3734    0.9884 C.ar      1 <0>        -0.1755
     19 C11        -3.2893  -11.0196    2.1587 C.ar      1 <0>         0.1593
     20 C12        -3.1263  -10.3838    3.3809 C.ar      1 <0>        -0.2351
     21 C13        -2.5908   -9.1113    3.4302 C.ar      1 <0>         0.0149
     22 O4         -3.8116  -12.2733    2.1080 O.3       1 <0>        -0.3070
     23 C14        -4.1707  -12.8773    3.3522 C.3       1 <0>         0.0581
     24 C15        -4.7363  -14.2756    3.0959 C.3       1 <0>         0.0657
     25 O5         -3.7127  -15.1111    2.5516 O.3       1 <0>        -0.3810
     26 C16        -4.1389  -16.4465    2.2740 C.3       1 <0>         0.0567
     27 C17        -2.9683  -17.2461    1.6982 C.3       1 <0>        -0.1523
     28 H1          1.0039    1.9031    0.0027 H         1 <0>         0.0593
     29 H2         -0.5459    1.8868   -0.8726 H         1 <0>         0.0709
     30 H3         -0.5289    1.8773    0.9072 H         1 <0>         0.0604
     31 H4         -1.0205   -0.3814    0.0098 H         1 <0>         0.0661
     32 H5          0.5123   -0.3556   -0.8948 H         1 <0>         0.0641
     33 H6          1.0768    0.1425    1.8273 H         1 <0>         0.3959
     34 H7          2.6052   -1.9357    2.6069 H         1 <0>         0.1095
     35 H8          1.0724   -1.9615    3.5114 H         1 <0>         0.0981
     36 H9          3.7210   -4.2098    2.7784 H         1 <0>         0.1543
     37 H10         2.9418   -6.7144    2.6991 H         1 <0>         0.1321
     38 H11        -2.0999   -8.5954    0.1318 H         1 <0>         0.1431
     39 H12        -3.0450  -10.8662    0.0357 H         1 <0>         0.1327
     40 H13        -3.4141  -10.8848    4.2934 H         1 <0>         0.1285
     41 H14        -2.4596   -8.6176    4.3817 H         1 <0>         0.1381
     42 H15        -3.2882  -12.9532    3.9874 H         1 <0>         0.0736
     43 H16        -4.9243  -12.2660    3.8488 H         1 <0>         0.0790
     44 H17        -5.0921  -14.7013    4.0341 H         1 <0>         0.0702
     45 H18        -5.5643  -14.2089    2.3901 H         1 <0>         0.0604
     46 H19        -4.4822  -16.9172    3.1952 H         1 <0>         0.0466
     47 H20        -4.9545  -16.4248    1.5512 H         1 <0>         0.0481
     48 H21        -2.6250  -16.7754    0.7770 H         1 <0>         0.0648
     49 H22        -2.1527  -17.2678    2.4210 H         1 <0>         0.0630
     50 H23        -3.2934  -18.2647    1.4865 H         1 <0>         0.0696
@<TRIPOS>BOND
     1    1    2 1
     2    1   28 1
     3    1   29 1
     4    1   30 1
     5    2    3 1
     6    2   31 1
     7    2   32 1
     8    3    4 am
     9    3   33 1
    10    4    5 2
    11    4    6 1
    12    6    7 1
    13    6   34 1
    14    6   35 1
    15    7   11 1
    16    7    8 1
    17    8    9 2
    18    8   36 1
    19    9   10 1
    20    9   37 1
    21   10   11 2
    22   10   12 1
    23   12   13 1
    24   13   14 2
    25   13   15 2
    26   13   16 1
    27   16   21 ar
    28   16   17 ar
    29   17   18 ar
    30   17   38 1
    31   18   19 ar
    32   18   39 1
    33   19   20 ar
    34   19   22 1
    35   20   21 ar
    36   20   40 1
    37   21   41 1
    38   22   23 1
    39   23   24 1
    40   23   42 1
    41   23   43 1
    42   24   25 1
    43   24   44 1
    44   24   45 1
    45   25   26 1
    46   26   27 1
    47   26   46 1
    48   26   47 1
    49   27   48 1
    50   27   49 1
    51   27   50 1
@<TRIPOS>MOLECULE
ZINC36268476
   32    34     0     0     0
SMALL
USER_CHARGES

@<TRIPOS>ATOM
      1 C1          0.0467    1.4298    0.6916 C.ar      1 <0>         0.0666
      2 C2          1.2400    2.0911    0.4624 C.ar      1 <0>        -0.2477
      3 C3          2.3881    1.3473    0.2105 C.ar      1 <0>         0.4385
      4 N1          2.3426    0.0240    0.1897 N.ar      1 <0>        -0.5455
      5 C4          1.2188   -0.6331    0.4048 C.ar      1 <0>         0.2581
      6 C5          0.0419    0.0417    0.6611 C.ar      1 <0>        -0.7736
      7 S1         -1.4509   -0.8496    0.9470 S.o2      1 <0>         2.7107
      8 O1         -1.0719   -2.1412    1.4024 O.2       1 <0>        -0.9570
      9 O2         -2.2968    0.0067    1.7024 O.2       1 <0>        -0.9578
     10 N2         -2.1835   -1.0620   -0.5229 N.pl3     1 <0>        -1.2489
     11 N3          3.5937    1.9988   -0.0220 N.pl3     1 <0>        -0.7014
     12 C6          3.6288    3.4597   -0.1255 C.3       1 <0>         0.1525
     13 C7          4.6691    4.2016    0.7161 C.3       1 <0>        -0.2010
     14 H1          4.4000    5.1427    1.1957 H         1 <0>         0.1603
     15 C8          4.8425    4.0890   -0.8125 C.3       1 <0>        -0.1823
     16 H2          4.7024    4.9464   -1.4709 H         1 <0>         0.1632
     17 C9          6.1005    3.2164   -1.0104 C.3       1 <0>         0.0206
     18 N4          6.8724    3.3816    0.2481 N.4       1 <0>        -0.5292
     19 C10         5.8167    3.3814    1.3436 C.3       1 <0>         0.0324
     20 H3         -0.8598    1.9807    0.8942 H         1 <0>         0.1605
     21 H4          1.2796    3.1703    0.4784 H         1 <0>         0.1456
     22 H5          1.2196   -1.7128    0.3802 H         1 <0>         0.1832
     23 H6         -1.7680   -0.7128   -1.3268 H         1 <0>         0.4159
     24 H7         -3.0280   -1.5357   -0.5799 H         1 <0>         0.4250
     25 H8          4.4119    1.4862   -0.1156 H         1 <0>         0.4037
     26 H9          2.6628    3.9435   -0.2701 H         1 <0>         0.1654
     27 H10         5.8206    2.1722   -1.1505 H         1 <0>         0.1323
     28 H11         6.6804    3.5729   -1.8617 H         1 <0>         0.1502
     29 H12         7.5070    2.6078    0.3770 H         1 <0>         0.4357
     30 H13         6.1937    3.8776    2.2379 H         1 <0>         0.1485
     31 H14         5.4775    2.3732    1.5816 H         1 <0>         0.1387
     32 H15         7.3762    4.2558    0.2408 H         1 <0>         0.4369
@<TRIPOS>BOND
     1    1    6 ar
     2    1    2 ar
     3    1   20 1
     4    2    3 ar
     5    2   21 1
     6    3    4 ar
     7    3   11 1
     8    4    5 ar
     9    5    6 ar
    10    5   22 1
    11    6    7 1
    12    7    8 2
    13    7    9 2
    14    7   10 1
    15   10   23 1
    16   10   24 1
    17   11   12 1
    18   11   25 1
    19   12   15 1
    20   12   13 1
    21   12   26 1
    22   13   14 1
    23   13   19 1
    24   13   15 1
    25   15   16 1
    26   15   17 1
    27   17   18 1
    28   17   27 1
    29   17   28 1
    30   18   19 1
    31   18   29 1
    32   18   32 1
    33   19   30 1
    34   19   31 1
@<TRIPOS>MOLECULE
ZINC41711935
   46    47     0     0     0
SMALL
USER_CHARGES

@<TRIPOS>ATOM
      1 C1         -0.0194    1.5263    0.0206 C.3       1 <0>        -0.1506
      2 C2          0.0006   -0.0035    0.0135 C.3       1 <0>        -0.0949
      3 C3          0.7078   -0.4985   -1.2498 C.3       1 <0>        -0.1119
      4 C4          0.7278   -2.0283   -1.2568 C.3       1 <0>        -0.1266
      5 C5          1.4761   -2.5343   -0.0220 C.3       1 <0>         0.1613
      6 C6          0.7689   -2.0394    1.2413 C.3       1 <0>        -0.1293
      7 C7          0.7489   -0.5095    1.2484 C.3       1 <0>        -0.1129
      8 N1          1.4953   -3.9992   -0.0288 N.am      1 <0>        -0.7313
      9 C8          2.4710   -4.6634    0.6218 C.2       1 <0>         0.7045
     10 O1          3.3353   -4.0468    1.2143 O.2       1 <0>        -0.5667
     11 N2          2.4886   -6.0110    0.6155 N.am      1 <0>        -0.6912
     12 C9          3.5533   -6.6996    1.2077 C.ar      1 <0>         0.1877
     13 C10         4.1571   -6.1958    2.3525 C.ar      1 <0>        -0.0960
     14 C11         5.2072   -6.8780    2.9347 C.ar      1 <0>        -0.0827
     15 C12         5.6581   -8.0613    2.3787 C.ar      1 <0>        -0.1424
     16 C13         5.0594   -8.5652    1.2389 C.ar      1 <0>        -0.1281
     17 C14         4.0045   -7.8909    0.6552 C.ar      1 <0>        -0.1238
     18 C15         5.5545   -9.8545    0.6358 C.3       1 <0>         0.0857
     19 H1          4.7813  -10.2755   -0.0069 H         1 <0>         0.1474
     20 C16         6.8121   -9.5808   -0.1915 C.3       1 <0>        -0.1806
     21 N3          5.8716  -10.8068    1.7085 N.4       1 <0>        -0.6362
     22 H2          1.0033    1.9031    0.0054 H         1 <0>         0.0559
     23 H3         -0.5525    1.8868   -0.8591 H         1 <0>         0.0566
     24 H4         -0.5232    1.8789    0.9206 H         1 <0>         0.0566
     25 H5         -1.0221   -0.3803    0.0287 H         1 <0>         0.0712
     26 H6          0.1746   -0.1380   -2.1295 H         1 <0>         0.0713
     27 H7          1.7304   -0.1217   -1.2649 H         1 <0>         0.0671
     28 H8         -0.2949   -2.4051   -1.2417 H         1 <0>         0.0697
     29 H9          1.2316   -2.3809   -2.1568 H         1 <0>         0.0697
     30 H10         2.4988   -2.1575   -0.0372 H         1 <0>         0.0919
     31 H11        -0.2538   -2.4162    1.2564 H         1 <0>         0.0643
     32 H12         1.3020   -2.3998    2.1210 H         1 <0>         0.0669
     33 H13         1.7716   -0.1327    1.2332 H         1 <0>         0.0661
     34 H14         0.2451   -0.1569    2.1483 H         1 <0>         0.0680
     35 H15         0.8057   -4.4910   -0.5015 H         1 <0>         0.3991
     36 H16         1.7633   -6.5036    0.2006 H         1 <0>         0.4113
     37 H17         3.8060   -5.2714    2.7867 H         1 <0>         0.1527
     38 H18         5.6772   -6.4867    3.8249 H         1 <0>         0.1390
     39 H19         6.4797   -8.5928    2.8357 H         1 <0>         0.1210
     40 H20         3.5344   -8.2873   -0.2326 H         1 <0>         0.1359
     41 H21         7.5853   -9.1598    0.4513 H         1 <0>         0.0839
     42 H22         7.1702  -10.5133   -0.6276 H         1 <0>         0.0858
     43 H23         6.5768   -8.8742   -0.9874 H         1 <0>         0.1074
     44 H24         5.0423  -10.9873    2.2540 H         1 <0>         0.4380
     45 H25         6.2031  -11.6700    1.3047 H         1 <0>         0.4376
     46 H26         6.5874  -10.4171    2.3034 H         1 <0>         0.4318
@<TRIPOS>BOND
     1    1    2 1
     2    1   22 1
     3    1   23 1
     4    1   24 1
     5    2    7 1
     6    2    3 1
     7    2   25 1
     8    3    4 1
     9    3   26 1
    10    3   27 1
    11    4    5 1
    12    4   28 1
    13    4   29 1
    14    5    6 1
    15    5    8 1
    16    5   30 1
    17    6    7 1
    18    6   31 1
    19    6   32 1
    20    7   33 1
    21    7   34 1
    22    8    9 am
    23    8   35 1
    24    9   10 2
    25    9   11 am
    26   11   12 1
    27   11   36 1
    28   12   17 ar
    29   12   13 ar
    30   13   14 ar
    31   13   37 1
    32   14   15 ar
    33   14   38 1
    34   15   16 ar
    35   15   39 1
    36   16   17 ar
    37   16   18 1
    38   17   40 1
    39   18   19 1
    40   18   20 1
    41   18   21 1
    42   20   41 1
    43   20   42 1
    44   20   43 1
    45   21   44 1
    46   21   45 1
    47   21   46 1
@<TRIPOS>MOLECULE
ZINC52009689
   42    43     0     0     0
SMALL
USER_CHARGES

@<TRIPOS>ATOM
      1 C1         -0.0187    1.5258    0.0104 C.3       1 <0>        -0.1186
      2 C2          1.4167    2.0553   -0.0004 C.3       1 <0>        -0.1224
      3 C3          2.1328    1.5619   -1.2592 C.3       1 <0>        -0.1519
      4 C4          2.1536    0.0321   -1.2676 C.3       1 <0>         0.0948
      5 H1          2.6808   -0.3290   -0.3846 H         1 <0>         0.0736
      6 C5          0.7182   -0.4975   -1.2568 C.3       1 <0>         0.1550
      7 H2          0.7330   -1.5874   -1.2628 H         1 <0>         0.0962
      8 C6          0.0021   -0.0041    0.0020 C.3       1 <0>        -0.1310
      9 N1          0.0097   -0.0122   -2.4437 N.am      1 <0>        -0.7096
     10 C7         -1.0425   -0.7007   -2.9288 C.2       1 <0>         0.5151
     11 O1         -1.4028   -1.7220   -2.3829 O.2       1 <0>        -0.5323
     12 C8         -1.7714   -0.2014   -4.1497 C.3       1 <0>        -0.1141
     13 C9         -2.3383    1.1921   -3.8710 C.3       1 <0>        -0.1100
     14 C10        -3.0783    1.6989   -5.1105 C.3       1 <0>        -0.1400
     15 C11        -4.2225    0.7411   -5.4486 C.3       1 <0>         0.0234
     16 C12        -3.6556   -0.6524   -5.7273 C.3       1 <0>        -0.1419
     17 C13        -2.9156   -1.1593   -4.4878 C.3       1 <0>        -0.0989
     18 N2         -4.9330    1.2277   -6.6387 N.4       1 <0>        -0.6367
     19 O2          2.8225   -0.4288   -2.4434 O.3       1 <0>        -0.5647
     20 H3         -0.5289    1.8773    0.9072 H         1 <0>         0.0686
     21 H4         -0.5459    1.8868   -0.8726 H         1 <0>         0.0588
     22 H5          1.4019    3.1452    0.0056 H         1 <0>         0.0694
     23 H6          1.9439    1.6943    0.8826 H         1 <0>         0.0695
     24 H7          1.6057    1.9230   -2.1423 H         1 <0>         0.0648
     25 H8          3.1554    1.9392   -1.2670 H         1 <0>         0.0729
     26 H9          0.5293   -0.3651    0.8851 H         1 <0>         0.0791
     27 H10        -1.0205   -0.3814    0.0098 H         1 <0>         0.0751
     28 H11         0.2978    0.8046   -2.8803 H         1 <0>         0.3990
     29 H12        -1.0796   -0.1508   -4.9905 H         1 <0>         0.1044
     30 H13        -3.0301    1.1414   -3.0302 H         1 <0>         0.0832
     31 H14        -1.5231    1.8744   -3.6302 H         1 <0>         0.0885
     32 H15        -3.4821    2.6917   -4.9120 H         1 <0>         0.0934
     33 H16        -2.3864    1.7496   -5.9513 H         1 <0>         0.0913
     34 H17        -4.9143    0.6904   -4.6078 H         1 <0>         0.1437
     35 H18        -4.4707   -1.3348   -5.9682 H         1 <0>         0.0937
     36 H19        -2.9638   -0.6017   -6.5681 H         1 <0>         0.0894
     37 H20        -2.5117   -2.1520   -4.6863 H         1 <0>         0.0942
     38 H21        -3.6074   -1.2099   -3.6470 H         1 <0>         0.0842
     39 H22        -4.2925    1.2746   -7.4170 H         1 <0>         0.4332
     40 H23        -5.6875    0.5961   -6.8617 H         1 <0>         0.4372
     41 H24         3.7394   -0.1305   -2.5166 H         1 <0>         0.3838
     42 H25        -5.3068    2.1467   -6.4549 H         1 <0>         0.4362
@<TRIPOS>BOND
     1    1    8 1
     2    1    2 1
     3    1   20 1
     4    1   21 1
     5    2    3 1
     6    2   22 1
     7    2   23 1
     8    3    4 1
     9    3   24 1
    10    3   25 1
    11    4    5 1
    12    4    6 1
    13    4   19 1
    14    6    7 1
    15    6    8 1
    16    6    9 1
    17    8   26 1
    18    8   27 1
    19    9   10 am
    20    9   28 1
    21   10   11 2
    22   10   12 1
    23   12   17 1
    24   12   13 1
    25   12   29 1
    26   13   14 1
    27   13   30 1
    28   13   31 1
    29   14   15 1
    30   14   32 1
    31   14   33 1
    32   15   16 1
    33   15   18 1
    34   15   34 1
    35   16   17 1
    36   16   35 1
    37   16   36 1
    38   17   37 1
    39   17   38 1
    40   18   39 1
    41   18   40 1
    42   18   42 1
    43   19   41 1
@<TRIPOS>MOLECULE
ZINC62775839
   33    35     0     0     0
SMALL
USER_CHARGES

@<TRIPOS>ATOM
      1 C1         -0.0167    1.3784    0.0096 C.ar      1 <0>        -0.0850
      2 C2          1.1691    2.0872    0.0021 C.ar      1 <0>        -0.1419
      3 C3          2.3804    1.4092   -0.0130 C.ar      1 <0>         0.1956
      4 C4          2.3956    0.0204   -0.0204 C.ar      1 <0>        -0.1127
      5 C5          1.2075   -0.6825   -0.0128 C.ar      1 <0>        -0.0486
      6 C6          0.0021   -0.0041    0.0020 C.ar      1 <0>        -0.1648
      7 C7         -1.2936   -0.7736    0.0106 C.3       1 <0>         0.1867
      8 H1         -1.1164   -1.7875   -0.3480 H         1 <0>         0.1513
      9 C8         -1.8377   -0.8254    1.4150 C.2       1 <0>        -0.3093
     10 C9         -1.7259   -1.8648    2.2743 C.2       1 <0>         0.1220
     11 N1         -2.3430   -1.5172    3.4229 N.pl3     1 <0>        -0.4546
     12 H2         -2.4209   -2.0673    4.2180 H         1 <0>         0.4545
     13 N2         -2.8510   -0.2213    3.2643 N.2       1 <0>        -0.2603
     14 C10        -2.5423    0.1945    2.0628 C.2       1 <0>         0.0541
     15 N3         -2.2651   -0.1066   -0.8665 N.4       1 <0>        -0.6343
     16 C11         3.7105   -0.7149   -0.0364 C.3       1 <0>        -0.0833
     17 C12         4.7328    0.0837   -0.8459 C.3       1 <0>        -0.1410
     18 C13         4.7274    1.5217   -0.4023 C.2       1 <0>         0.5180
     19 O1          5.7657    2.1485   -0.3885 O.2       1 <0>        -0.5027
     20 N4          3.5842    2.1202   -0.0203 N.am      1 <0>        -0.6683
     21 H3         -0.9595    1.9048    0.0260 H         1 <0>         0.1247
     22 H4          1.1537    3.1671    0.0076 H         1 <0>         0.1407
     23 H5          1.2191   -1.7624   -0.0188 H         1 <0>         0.1403
     24 H6         -1.2313   -2.8043    2.0763 H         1 <0>         0.1909
     25 H7         -2.7913    1.1578    1.6426 H         1 <0>         0.1847
     26 H8         -3.1326   -0.6218   -0.8607 H         1 <0>         0.4399
     27 H9         -2.4291    0.8320   -0.5345 H         1 <0>         0.4291
     28 H10         4.0710   -0.8363    0.9851 H         1 <0>         0.0913
     29 H11         3.5727   -1.6956   -0.4917 H         1 <0>         0.0994
     30 H12         5.7258   -0.3388   -0.6925 H         1 <0>         0.1180
     31 H13         4.4777    0.0304   -1.9043 H         1 <0>         0.1087
     32 H14         3.5953    3.0515    0.2510 H         1 <0>         0.4170
     33 H15        -1.9008   -0.0719   -1.8068 H         1 <0>         0.4399
@<TRIPOS>BOND
     1    1    6 ar
     2    1    2 ar
     3    1   21 1
     4    2    3 ar
     5    2   22 1
     6    3   20 1
     7    3    4 ar
     8    4    5 ar
     9    4   16 1
    10    5    6 ar
    11    5   23 1
    12    6    7 1
    13    7    8 1
    14    7    9 1
    15    7   15 1
    16    9   14 1
    17    9   10 2
    18   10   11 1
    19   10   24 1
    20   11   12 1
    21   11   13 1
    22   13   14 2
    23   14   25 1
    24   15   26 1
    25   15   27 1
    26   15   33 1
    27   16   17 1
    28   16   28 1
    29   16   29 1
    30   17   18 1
    31   17   30 1
    32   17   31 1
    33   18   19 2
    34   18   20 am
    35   20   32 1
@<TRIPOS>MOLECULE
ZINC63211049
   38    39     0     0     0
SMALL
USER_CHARGES

@<TRIPOS>ATOM
      1 C1         -0.0167    1.3830    0.0096 C.ar      1 <0>        -0.1147
      2 C2          1.1786    2.0794    0.0020 C.ar      1 <0>        -0.1081
      3 C3          2.3684    1.3550   -0.0133 C.ar      1 <0>         0.1343
      4 C4          2.3093   -0.0429   -0.0202 C.ar      1 <0>         0.0230
      5 N1          1.1367   -0.6668   -0.0128 N.ar      1 <0>        -0.4520
      6 C5          0.0021   -0.0041    0.0020 C.ar      1 <0>         0.0910
      7 C6          3.5601   -0.8307   -0.0364 C.2       1 <0>         0.5828
      8 O1          4.6354   -0.2638   -0.0436 O.2       1 <0>        -0.4881
      9 N2          3.5083   -2.1775   -0.0431 N.am      1 <0>        -0.7428
     10 C7          4.7479   -2.9581   -0.0592 C.3       1 <0>         0.1312
     11 H1          5.4897   -2.4267   -0.6553 H         1 <0>         0.1165
     12 C8          5.2713   -3.0890    1.3839 C.3       1 <0>        -0.1286
     13 C9          6.2792   -4.1964    1.5326 C.3       1 <0>        -0.1228
     14 C10         5.5417   -5.4718    1.9891 C.3       1 <0>        -0.1343
     15 C11         4.8837   -6.1569    0.8864 C.3       1 <0>        -0.1123
     16 C12         3.7974   -5.2886    0.2192 C.3       1 <0>        -0.1518
     17 C13         4.4671   -4.3228   -0.7167 C.3       1 <0>         0.0269
     18 H2          5.4106   -4.7537   -1.0517 H         1 <0>         0.1555
     19 N3          3.5997   -4.1183   -1.8845 N.4       1 <0>        -0.6390
     20 O2          3.5647    1.9945   -0.0217 O.3       1 <0>        -0.4715
     21 H3         -0.9566    1.9147    0.0259 H         1 <0>         0.1530
     22 H4          1.1891    3.1594    0.0073 H         1 <0>         0.1554
     23 H5         -0.9309   -0.5481    0.0080 H         1 <0>         0.1726
     24 H6          2.6503   -2.6298   -0.0374 H         1 <0>         0.4054
     25 H7          5.7359   -2.1476    1.6772 H         1 <0>         0.0869
     26 H8          4.4297   -3.2866    2.0478 H         1 <0>         0.0787
     27 H9          6.7672   -4.3784    0.5751 H         1 <0>         0.0680
     28 H10         7.0231   -3.9167    2.2786 H         1 <0>         0.0818
     29 H11         6.2609   -6.1505    2.4474 H         1 <0>         0.0763
     30 H12         4.7927   -5.1995    2.7327 H         1 <0>         0.0695
     31 H13         5.6315   -6.4225    0.1392 H         1 <0>         0.0718
     32 H14         4.4234   -7.0705    1.2627 H         1 <0>         0.0835
     33 H15         3.1117   -5.9255   -0.3397 H         1 <0>         0.0926
     34 H16         3.2492   -4.7371    0.9830 H         1 <0>         0.0993
     35 H17         4.0616   -3.5103   -2.5441 H         1 <0>         0.4374
     36 H18         3.4100   -5.0073   -2.3224 H         1 <0>         0.4390
     37 H19         3.9201    2.1754    0.8592 H         1 <0>         0.4046
     38 H20         2.7319   -3.6967   -1.5892 H         1 <0>         0.4291
@<TRIPOS>BOND
     1    1    6 ar
     2    1    2 ar
     3    1   21 1
     4    2    3 ar
     5    2   22 1
     6    3    4 ar
     7    3   20 1
     8    4    5 ar
     9    4    7 1
    10    5    6 ar
    11    6   23 1
    12    7    8 2
    13    7    9 am
    14    9   10 1
    15    9   24 1
    16   10   11 1
    17   10   17 1
    18   10   12 1
    19   12   13 1
    20   12   25 1
    21   12   26 1
    22   13   14 1
    23   13   27 1
    24   13   28 1
    25   14   15 1
    26   14   29 1
    27   14   30 1
    28   15   16 1
    29   15   31 1
    30   15   32 1
    31   16   17 1
    32   16   33 1
    33   16   34 1
    34   17   18 1
    35   17   19 1
    36   19   35 1
    37   19   36 1
    38   19   38 1
    39   20   37 1
@<TRIPOS>MOLECULE
ZINC13396210
   52    54     0     0     0
SMALL
USER_CHARGES
(2S)-1-[2-[[4-allyl-5-(2-methoxyphenyl)-1,2,4-triazol-3-yl]sulfanyl]acetyl]piperidine-2-carboxylic acid
@<TRIPOS>ATOM
      1 C1         -3.2851    1.8982   -9.2295 C.3       1 <0>         0.0253
      2 O1         -3.0304    2.4955   -7.9566 O.3       1 <0>        -0.2948
      3 C2         -1.7297    2.6474   -7.5959 C.ar      1 <0>         0.1685
      4 C3         -0.7189    2.2319   -8.4472 C.ar      1 <0>        -0.2099
      5 C4          0.6044    2.3878   -8.0796 C.ar      1 <0>        -0.0654
      6 C5          0.9293    2.9584   -6.8611 C.ar      1 <0>        -0.1555
      7 C6         -0.0657    3.3769   -6.0020 C.ar      1 <0>        -0.0631
      8 C7         -1.4052    3.2251   -6.3623 C.ar      1 <0>        -0.0460
      9 C8         -2.4756    3.6773   -5.4495 C.2       1 <0>         0.2211
     10 N1         -3.5426    2.9967   -5.1002 N.2       1 <0>        -0.2543
     11 N2         -4.2598    3.6902   -4.2902 N.2       1 <0>        -0.2996
     12 C9         -3.7000    4.8601   -4.0799 C.2       1 <0>         0.1542
     13 N3         -2.5454    4.8934   -4.8098 N.pl3     1 <0>        -0.4538
     14 C10        -1.5825    5.9943   -4.8936 C.3       1 <0>         0.1315
     15 C11        -2.0433    6.9869   -5.9297 C.2       1 <0>        -0.1930
     16 C12        -2.1917    8.2481   -5.6082 C.2       1 <0>        -0.1406
     17 S1         -4.3219    6.1461   -3.0485 S.3       1 <0>         0.0880
     18 C13        -5.8402    5.3630   -2.4506 C.3       1 <0>        -0.1379
     19 C14        -6.5607    6.3070   -1.5229 C.2       1 <0>         0.5094
     20 O2         -6.0936    7.4016   -1.2889 O.2       1 <0>        -0.4530
     21 N4         -7.7241    5.9350   -0.9531 N.am      1 <0>        -0.5938
     22 C15        -8.2522    4.5777   -1.1470 C.3       1 <0>         0.1049
     23 C16        -8.5286    3.9594    0.2319 C.3       1 <0>        -0.1323
     24 C17        -9.4536    4.8862    1.0240 C.3       1 <0>        -0.1177
     25 C18        -8.7678    6.2385    1.2316 C.3       1 <0>        -0.1174
     26 C19        -8.4914    6.8809   -0.1314 C.3       1 <0>         0.1008
     27 H1         -9.4344    7.1133   -0.6262 H         1 <0>         0.0684
     28 C20        -7.6953    8.1463    0.0586 C.2       1 <0>         0.4859
     29 O3         -6.6496    8.1171    0.6633 O.co2     1 <0>        -0.6158
     30 H2         -2.8557    0.8967   -9.2534 H         1 <0>         0.0575
     31 H3         -4.3610    1.8362   -9.3930 H         1 <0>         0.1022
     32 H4         -2.8330    2.5062  -10.0131 H         1 <0>         0.0548
     33 H5         -0.9652    1.7859   -9.3994 H         1 <0>         0.1346
     34 H6          1.3890    2.0630   -8.7469 H         1 <0>         0.1293
     35 H7          1.9659    3.0765   -6.5818 H         1 <0>         0.1310
     36 H8          0.1918    3.8219   -5.0523 H         1 <0>         0.1308
     37 H9         -1.5097    6.4880   -3.9246 H         1 <0>         0.1043
     38 H10        -0.6055    5.6018   -5.1757 H         1 <0>         0.1063
     39 H11        -2.2512    6.6584   -6.9374 H         1 <0>         0.1141
     40 H12        -1.9838    8.5765   -4.6006 H         1 <0>         0.1068
     41 H13        -2.5220    8.9594   -6.3507 H         1 <0>         0.1086
     42 H14        -6.4836    5.1241   -3.2974 H         1 <0>         0.1190
     43 H15        -5.5901    4.4473   -1.9148 H         1 <0>         0.1183
     44 H16        -9.1773    4.6242   -1.7217 H         1 <0>         0.0663
     45 H17        -7.5186    3.9728   -1.6799 H         1 <0>         0.0806
     46 H18        -7.5900    3.8340    0.7718 H         1 <0>         0.0664
     47 H19        -9.0078    2.9887    0.1051 H         1 <0>         0.0695
     48 H20        -9.6736    4.4381    1.9930 H         1 <0>         0.0601
     49 H21       -10.3821    5.0309    0.4716 H         1 <0>         0.0603
     50 H22        -7.8270    6.0917    1.7621 H         1 <0>         0.0714
     51 H23        -9.4176    6.8901    1.8158 H         1 <0>         0.0678
     52 O4         -8.1479    9.3058   -0.4439 O.co2     1 <0>        -0.7742
@<TRIPOS>BOND
     1    1    2 1
     2    1   30 1
     3    1   31 1
     4    1   32 1
     5    2    3 1
     6    3    8 ar
     7    3    4 ar
     8    4    5 ar
     9    4   33 1
    10    5    6 ar
    11    5   34 1
    12    6    7 ar
    13    6   35 1
    14    7    8 ar
    15    7   36 1
    16    8    9 1
    17    9   13 1
    18    9   10 2
    19   10   11 1
    20   11   12 2
    21   12   13 1
    22   12   17 1
    23   13   14 1
    24   14   15 1
    25   14   37 1
    26   14   38 1
    27   15   16 2
    28   15   39 1
    29   16   40 1
    30   16   41 1
    31   17   18 1
    32   18   19 1
    33   18   42 1
    34   18   43 1
    35   19   20 2
    36   19   21 am
    37   21   26 1
    38   21   22 1
    39   22   23 1
    40   22   44 1
    41   22   45 1
    42   23   24 1
    43   23   46 1
    44   23   47 1
    45   24   25 1
    46   24   48 1
    47   24   49 1
    48   25   26 1
    49   25   50 1
    50   25   51 1
    51   26   27 1
    52   26   28 1
    53   28   29 2
    54   28   52 1
@<TRIPOS>MOLECULE
ZINC22526938
   49    51     0     0     0
SMALL
USER_CHARGES
2-(methyl-methylsulfonyl-amino)-N-[4-(pyrimidin-2-ylsulfamoyl)phenyl]benzamide
@<TRIPOS>ATOM
      1 C1         -0.4541    3.1091    2.0596 C.3       1 <0>         0.0933
      2 N1         -0.7509    1.8181    1.4340 N.pl3     1 <0>        -0.9455
      3 C2         -1.6403    0.9407    2.0405 C.ar      1 <0>         0.1969
      4 C3         -3.0068    1.0715    1.8252 C.ar      1 <0>        -0.1293
      5 C4         -3.8880    0.1959    2.4254 C.ar      1 <0>        -0.0874
      6 C5         -3.4208   -0.8127    3.2535 C.ar      1 <0>        -0.1171
      7 C6         -2.0701   -0.9550    3.4832 C.ar      1 <0>        -0.0791
      8 C7         -1.1640   -0.0793    2.8789 C.ar      1 <0>        -0.1126
      9 C8          0.2826   -0.2256    3.1208 C.2       1 <0>         0.5605
     10 O1          1.0677    0.5389    2.5932 O.2       1 <0>        -0.5071
     11 N2          0.7354   -1.2065    3.9266 N.am      1 <0>        -0.6778
     12 C9          2.1110   -1.4065    4.0797 C.ar      1 <0>         0.1773
     13 C10         2.6133   -2.6908    4.2455 C.ar      1 <0>        -0.1797
     14 C11         3.9729   -2.8854    4.3902 C.ar      1 <0>         0.0281
     15 C12         4.8327   -1.8024    4.3826 C.ar      1 <0>        -0.6635
     16 C13         4.3352   -0.5219    4.2235 C.ar      1 <0>        -0.0118
     17 C14         2.9773   -0.3209    4.0721 C.ar      1 <0>        -0.1532
     18 S1          6.5659   -2.0544    4.5755 S.o2      1 <0>         2.6274
     19 O2          6.8310   -3.3874    4.1607 O.2       1 <0>        -1.0226
     20 O3          7.2076   -0.9315    3.9870 O.2       1 <0>        -0.9952
     21 N3          6.8925   -1.9898    6.1977 N.2       1 <0>        -1.0122
     22 C15         6.3741   -2.9520    7.0469 C.ar      1 <0>         0.5843
     23 N4          5.3887   -3.7280    6.6201 N.ar      1 <0>        -0.6100
     24 C16         4.8746   -4.6609    7.4044 C.ar      1 <0>         0.1839
     25 C17         5.3714   -4.8130    8.6894 C.ar      1 <0>        -0.3405
     26 C18         6.3986   -3.9807    9.1055 C.ar      1 <0>         0.1767
     27 N5          6.8714   -3.0715    8.2691 N.ar      1 <0>        -0.5509
     28 S2         -0.0259    1.4049    0.0036 S.o2      1 <0>         2.6110
     29 O4         -0.0123   -0.0160    0.0011 O.2       1 <0>        -0.9407
     30 O5          1.1895    2.1410   -0.0127 O.2       1 <0>        -0.9343
     31 C19        -1.1470    2.0213   -1.2824 C.3       1 <0>        -0.6864
     32 H1          0.2658    3.6611    1.4375 H         1 <0>         0.0920
     33 H2         -0.0237    2.9424    3.0581 H         1 <0>         0.0702
     34 H3         -1.3816    3.6931    2.1530 H         1 <0>         0.0594
     35 H4         -3.3792    1.8570    1.1843 H         1 <0>         0.1345
     36 H5         -4.9489    0.2993    2.2519 H         1 <0>         0.1336
     37 H6         -4.1195   -1.4904    3.7214 H         1 <0>         0.1346
     38 H7         -1.7117   -1.7422    4.1299 H         1 <0>         0.1325
     39 H8          0.0229   -1.8498    4.4638 H         1 <0>         0.4274
     40 H9          1.9419   -3.5366    4.2563 H         1 <0>         0.1222
     41 H10         4.3646   -3.8842    4.5143 H         1 <0>         0.1465
     42 H11         5.0094    0.3218    4.2173 H         1 <0>         0.1335
     43 H12         2.5894    0.6793    3.9475 H         1 <0>         0.1363
     44 H13         4.0741   -5.2931    7.0495 H         1 <0>         0.1427
     45 H14         4.9671   -5.5641    9.3519 H         1 <0>         0.1213
     46 H15         6.8083   -4.0736   10.1004 H         1 <0>         0.1466
     47 H16        -0.7333    1.7844   -2.2737 H         1 <0>         0.1300
     48 H17        -1.2566    3.1112   -1.1817 H         1 <0>         0.1282
     49 H18        -2.1309    1.5421   -1.1716 H         1 <0>         0.1263
@<TRIPOS>BOND
     1    1    2 1
     2    1   32 1
     3    1   33 1
     4    1   34 1
     5    2    3 1
     6    2   28 1
     7    3    8 ar
     8    3    4 ar
     9    4    5 ar
    10    4   35 1
    11    5    6 ar
    12    5   36 1
    13    6    7 ar
    14    6   37 1
    15    7    8 ar
    16    7   38 1
    17    8    9 1
    18    9   10 2
    19    9   11 am
    20   11   12 1
    21   11   39 1
    22   12   17 ar
    23   12   13 ar
    24   13   14 ar
    25   13   40 1
    26   14   15 ar
    27   14   41 1
    28   15   16 ar
    29   15   18 1
    30   16   17 ar
    31   16   42 1
    32   17   43 1
    33   18   19 2
    34   18   20 2
    35   18   21 1
    36   21   22 1
    37   22   27 ar
    38   22   23 ar
    39   23   24 ar
    40   24   25 ar
    41   24   44 1
    42   25   26 ar
    43   25   45 1
    44   26   27 ar
    45   26   46 1
    46   28   29 2
    47   28   30 2
    48   28   31 1
    49   31   47 1
    50   31   48 1
    51   31   49 1
@<TRIPOS>MOLECULE
ZINC13076042
   50    51     0     0     0
SMALL
USER_CHARGES

@<TRIPOS>ATOM
      1 C1         -0.0173    1.4248    0.0099 C.3       1 <0>         0.0205
      2 O1          0.0021   -0.0041    0.0020 O.3       1 <0>        -0.3053
      3 C2          0.6262   -0.6188    1.0422 C.ar      1 <0>         0.1012
      4 C3          1.1994    0.1357    2.0462 C.ar      1 <0>        -0.1504
      5 C4          1.8413   -0.5009    3.1157 C.ar      1 <0>        -0.0111
      6 C5          1.8980   -1.8994    3.1605 C.ar      1 <0>        -0.0419
      7 C6          1.3234   -2.6438    2.1545 C.ar      1 <0>        -0.6579
      8 C7          0.6821   -2.0113    1.0971 C.ar      1 <0>         0.1393
      9 O2          0.1122   -2.7510    0.1112 O.3       1 <0>        -0.3306
     10 C8          0.9361   -3.0860   -1.0073 C.3       1 <0>         0.0170
     11 S1          1.3957   -4.4033    2.2125 S.o2      1 <0>         2.7076
     12 O3          1.8441   -4.8337    0.9347 O.2       1 <0>        -0.9505
     13 O4          2.0765   -4.7425    3.4128 O.2       1 <0>        -0.9565
     14 N1         -0.1580   -4.9520    2.3784 N.pl3     1 <0>        -1.1136
     15 C9         -1.1312   -4.7312    1.3058 C.3       1 <0>         0.1254
     16 C10        -2.3470   -5.6334    1.5267 C.3       1 <0>         0.0480
     17 N2         -3.3228   -5.4121    0.4512 N.3       1 <0>        -0.5317
     18 C11        -3.8850   -4.0555    0.5209 C.3       1 <0>         0.0102
     19 C12        -4.8496   -3.8478   -0.6497 C.3       1 <0>         0.0642
     20 O5         -5.8627   -4.8564   -0.6107 O.3       1 <0>        -0.3875
     21 C13        -5.3504   -6.1900   -0.6773 C.3       1 <0>         0.0639
     22 C14        -4.3910   -6.4214    0.4931 C.3       1 <0>         0.0178
     23 C15         2.4535    0.2957    4.1868 C.2       1 <0>        -0.1269
     24 C16         2.3980    1.6471    4.1413 C.2       1 <0>        -0.1469
     25 C17         2.9872    2.4139    5.1722 C.2       1 <0>         0.4979
     26 O6          3.5484    1.8550    6.1071 O.co2     1 <0>        -0.6885
     27 O7          2.9369    3.6374    5.1309 O.co2     1 <0>        -0.6952
     28 H1          1.0053    1.8021    0.0021 H         1 <0>         0.0583
     29 H2         -0.5445    1.7859   -0.8732 H         1 <0>         0.1030
     30 H3         -0.5275    1.7763    0.9067 H         1 <0>         0.0589
     31 H4          1.1533    1.2140    2.0068 H         1 <0>         0.1455
     32 H5          2.3924   -2.3940    3.9836 H         1 <0>         0.1527
     33 H6          1.7944   -3.6647   -0.6659 H         1 <0>         0.0850
     34 H7          0.3596   -3.6767   -1.7192 H         1 <0>         0.0951
     35 H8          1.2827   -2.1722   -1.4898 H         1 <0>         0.0437
     36 H9         -0.4236   -5.4195    3.1857 H         1 <0>         0.4169
     37 H10        -1.4471   -3.6880    1.3109 H         1 <0>         0.0768
     38 H11        -0.6732   -4.9674    0.3454 H         1 <0>         0.0937
     39 H12        -2.0310   -6.6766    1.5216 H         1 <0>         0.0837
     40 H13        -2.8050   -5.3972    2.4872 H         1 <0>         0.0423
     41 H14        -4.4221   -3.9319    1.4614 H         1 <0>         0.0438
     42 H15        -3.0790   -3.3240    0.4626 H         1 <0>         0.0972
     43 H16        -5.3121   -2.8641   -0.5701 H         1 <0>         0.0985
     44 H17        -4.3019   -3.9183   -1.5895 H         1 <0>         0.0619
     45 H18        -6.1752   -6.9002   -0.6177 H         1 <0>         0.0969
     46 H19        -4.8173   -6.3286   -1.6179 H         1 <0>         0.0606
     47 H20        -3.9542   -7.4170    0.4144 H         1 <0>         0.0871
     48 H21        -4.9361   -6.3356    1.4331 H         1 <0>         0.0434
     49 H22         2.9481   -0.1970    5.0109 H         1 <0>         0.1384
     50 H23         1.9033    2.1398    3.3172 H         1 <0>         0.0984
@<TRIPOS>BOND
     1    1    2 1
     2    1   28 1
     3    1   29 1
     4    1   30 1
     5    2    3 1
     6    3    8 ar
     7    3    4 ar
     8    4    5 ar
     9    4   31 1
    10    5    6 ar
    11    5   23 1
    12    6    7 ar
    13    6   32 1
    14    7    8 ar
    15    7   11 1
    16    8    9 1
    17    9   10 1
    18   10   33 1
    19   10   34 1
    20   10   35 1
    21   11   12 2
    22   11   13 2
    23   11   14 1
    24   14   15 1
    25   14   36 1
    26   15   16 1
    27   15   37 1
    28   15   38 1
    29   16   17 1
    30   16   39 1
    31   16   40 1
    32   17   22 1
    33   17   18 1
    34   18   19 1
    35   18   41 1
    36   18   42 1
    37   19   20 1
    38   19   43 1
    39   19   44 1
    40   20   21 1
    41   21   22 1
    42   21   45 1
    43   21   46 1
    44   22   47 1
    45   22   48 1
    46   23   24 2
    47   23   49 1
    48   24   25 1
    49   24   50 1
    50   25   26 2
    51   25   27 1
@<TRIPOS>MOLECULE
ZINC49102377
   54    55     0     0     0
SMALL
USER_CHARGES

@<TRIPOS>ATOM
      1 C1         -1.7852    3.0544    0.8268 C.3       1 <0>        -0.1055
      2 C2         -1.5346    1.6074    0.4888 C.ar      1 <0>         0.2076
      3 C3         -1.6141    1.1694   -0.8240 C.ar      1 <0>        -0.2654
      4 C4         -1.3762   -0.1700   -1.0904 C.ar      1 <0>         0.2055
      5 N1         -1.0824   -0.9840   -0.0901 N.ar      1 <0>        -0.5231
      6 C5         -1.0146   -0.5329    1.1520 C.ar      1 <0>         0.5871
      7 N2         -1.2306    0.7404    1.4404 N.ar      1 <0>        -0.5405
      8 N3         -0.7021   -1.4201    2.1820 N.pl3     1 <0>        -0.3249
      9 C6         -0.6009   -1.1116    3.5018 C.2       1 <0>         0.0984
     10 C7         -0.2835   -2.2472    4.1641 C.2       1 <0>        -0.1743
     11 C8         -0.1869   -3.2818    3.2259 C.2       1 <0>         0.1139
     12 N4         -0.4423   -2.7896    2.0415 N.2       1 <0>        -0.2751
     13 C9          0.1482   -4.7193    3.5299 C.3       1 <0>        -0.0688
     14 C10        -0.0707   -2.3761    5.6504 C.3       1 <0>        -0.0548
     15 C11        -1.3992   -2.5789    6.3324 C.2       1 <0>         0.3665
     16 O1         -2.3381   -3.3505    5.7586 O.3       1 <0>        -0.6476
     17 C12        -1.6485   -1.9798    7.5312 C.2       1 <0>        -0.4279
     18 C13        -2.9718   -1.9957    8.0781 C.1       1 <0>         0.3203
     19 N5         -4.0216   -2.0084    8.5120 N.1       1 <0>        -0.5452
     20 C14        -0.5588   -1.3173    8.2626 C.2       1 <0>         0.5962
     21 O2          0.5890   -1.4264    7.8741 O.2       1 <0>        -0.5806
     22 N6         -0.8312   -0.5890    9.3634 N.am      1 <0>        -0.7478
     23 C15         0.2547    0.0712   10.0922 C.3       1 <0>         0.1308
     24 C16        -0.3213    0.8257   11.2921 C.3       1 <0>        -0.1325
     25 C17         0.8128    1.5152   12.0533 C.3       1 <0>         0.0657
     26 O3          0.2748    2.2200   13.1740 O.3       1 <0>        -0.3935
     27 C18         1.2561    2.9030   13.9567 C.3       1 <0>         0.0322
     28 C19        -0.8048    0.2494    4.1158 C.3       1 <0>        -0.0889
     29 C20        -1.4518   -0.6923   -2.5020 C.3       1 <0>        -0.1047
     30 H1         -0.8473    3.6073    0.7752 H         1 <0>         0.0873
     31 H2         -2.4951    3.4761    0.1152 H         1 <0>         0.0827
     32 H3         -2.1946    3.1265    1.8344 H         1 <0>         0.0859
     33 H4         -1.8564    1.8563   -1.6214 H         1 <0>         0.1485
     34 H5         -0.7729   -5.2904    3.6457 H         1 <0>         0.0843
     35 H6          0.7341   -5.1368    2.7111 H         1 <0>         0.0683
     36 H7          0.7258   -4.7704    4.4529 H         1 <0>         0.0808
     37 H8          0.5755   -3.2304    5.8522 H         1 <0>         0.0856
     38 H9          0.3979   -1.4683    6.0305 H         1 <0>         0.1153
     39 H10        -1.7463   -0.5020    9.6732 H         1 <0>         0.3938
     40 H11         0.9659   -0.6776   10.4412 H         1 <0>         0.0614
     41 H12         0.7618    0.7735    9.4307 H         1 <0>         0.0621
     42 H13        -1.0325    1.5745   10.9432 H         1 <0>         0.0757
     43 H14        -0.8285    0.1234   11.9536 H         1 <0>         0.0754
     44 H15         1.5239    0.7665   12.4022 H         1 <0>         0.0523
     45 H16         1.3199    2.2176   11.3918 H         1 <0>         0.0524
     46 H17         1.9764    2.1830   14.3451 H         1 <0>         0.0405
     47 H18         1.7724    3.6341   13.3346 H         1 <0>         0.0406
     48 H19         0.7679    3.4127   14.7873 H         1 <0>         0.0839
     49 H20        -1.8529    0.3716    4.3889 H         1 <0>         0.0759
     50 H21        -0.1839    0.3428    5.0068 H         1 <0>         0.0817
     51 H22        -0.5249    1.0184    3.3958 H         1 <0>         0.0898
     52 H23        -0.4709   -0.6151   -2.9710 H         1 <0>         0.0863
     53 H24        -1.7663   -1.7358   -2.4869 H         1 <0>         0.0844
     54 H25        -2.1730   -0.1036   -3.0690 H         1 <0>         0.0820
@<TRIPOS>BOND
     1    1    2 1
     2    1   30 1
     3    1   31 1
     4    1   32 1
     5    2    7 ar
     6    2    3 ar
     7    3    4 ar
     8    3   33 1
     9    4    5 ar
    10    4   29 1
    11    5    6 ar
    12    6    7 ar
    13    6    8 1
    14    8   12 1
    15    8    9 1
    16    9   10 2
    17    9   28 1
    18   10   11 1
    19   10   14 1
    20   11   12 2
    21   11   13 1
    22   13   34 1
    23   13   35 1
    24   13   36 1
    25   14   15 1
    26   14   37 1
    27   14   38 1
    28   15   16 1
    29   15   17 2
    30   17   18 1
    31   17   20 1
    32   18   19 3
    33   20   21 2
    34   20   22 am
    35   22   23 1
    36   22   39 1
    37   23   24 1
    38   23   40 1
    39   23   41 1
    40   24   25 1
    41   24   42 1
    42   24   43 1
    43   25   26 1
    44   25   44 1
    45   25   45 1
    46   26   27 1
    47   27   46 1
    48   27   47 1
    49   27   48 1
    50   28   49 1
    51   28   50 1
    52   28   51 1
    53   29   52 1
    54   29   53 1
    55   29   54 1
@<TRIPOS>MOLECULE
ZINC66559616
   48    50     0     0     0
SMALL
USER_CHARGES

@<TRIPOS>ATOM
      1 C1          0.9334    1.3667    0.1030 C.3       1 <0>        -0.1498
      2 C2          0.8001   -0.1574    0.1136 C.3       1 <0>         0.0659
      3 O1         -0.5441   -0.5203   -0.2081 O.3       1 <0>        -0.3621
      4 C3         -0.8315   -1.8380   -0.2416 C.2       1 <0>         0.5472
      5 O2          0.0369   -2.6562   -0.0037 O.2       1 <0>        -0.5169
      6 C4         -2.1873   -2.2830   -0.5639 C.2       1 <0>        -0.3475
      7 C5         -3.2906   -1.4611   -0.8662 C.2       1 <0>         0.1270
      8 N1         -4.3272   -2.2203   -1.0984 N.2       1 <0>        -0.3172
      9 N2         -3.9637   -3.5642   -0.9624 N.pl3     1 <0>        -0.3416
     10 C6         -2.6382   -3.6160   -0.6372 C.2       1 <0>         0.3810
     11 N3         -2.0249   -4.7851   -0.4524 N.2       1 <0>        -0.5194
     12 C7         -2.6781   -5.9223   -0.5814 C.2       1 <0>         0.2292
     13 C8         -4.0304   -5.9195   -0.9156 C.2       1 <0>        -0.3731
     14 C9         -4.6721   -4.7248   -1.0994 C.2       1 <0>         0.4900
     15 O3         -5.9835   -4.6936   -1.4268 O.3       1 <0>        -0.6508
     16 C10        -1.9599   -7.2297   -0.3673 C.3       1 <0>         0.0992
     17 N4         -0.5549   -6.9668   -0.0281 N.3       1 <0>        -0.4926
     18 C11        -0.4448   -6.2906    1.2714 C.3       1 <0>         0.0762
     19 C12        -0.9243   -7.2148    2.3609 C.2       1 <0>        -0.1883
     20 C13        -0.1392   -7.5007    3.3698 C.2       1 <0>        -0.1913
     21 C14         0.2316   -8.2073   -0.0443 C.3       1 <0>         0.0810
     22 H1         -0.1652   -8.8971    0.7006 H         1 <0>         0.0651
     23 C15         0.1395   -8.8520   -1.4373 C.3       1 <0>        -0.1311
     24 C16         1.2146   -9.9727   -1.5245 C.3       1 <0>        -0.5721
     25 S1          2.6277   -9.1510   -0.6741 S.o2      1 <0>         2.3685
     26 O4          3.4341   -8.4971   -1.6444 O.2       1 <0>        -0.9361
     27 O5          3.2261  -10.0742    0.2252 O.2       1 <0>        -0.9464
     28 C17         1.7079   -7.8841    0.2896 C.3       1 <0>        -0.5696
     29 H2          1.9587    1.6435    0.3485 H         1 <0>         0.0720
     30 H3          0.6816    1.7466   -0.8871 H         1 <0>         0.0638
     31 H4          0.2548    1.7959    0.8403 H         1 <0>         0.0634
     32 H5          1.4787   -0.5866   -0.6236 H         1 <0>         0.0607
     33 H6          1.0519   -0.5373    1.1037 H         1 <0>         0.0598
     34 H7         -3.2809   -0.3817   -0.9000 H         1 <0>         0.1895
     35 H8         -4.5682   -6.8499   -1.0224 H         1 <0>         0.1383
     36 H9         -2.4344   -7.7756    0.4481 H         1 <0>         0.0617
     37 H10        -2.0082   -7.8245   -1.2794 H         1 <0>         0.1000
     38 H11         0.5958   -6.0223    1.4543 H         1 <0>         0.0805
     39 H12        -1.0567   -5.3886    1.2646 H         1 <0>         0.1207
     40 H13        -1.9152   -7.6413    2.3098 H         1 <0>         0.1054
     41 H14        -0.4829   -8.1631    4.1506 H         1 <0>         0.0923
     42 H15         0.8517   -7.0742    3.4208 H         1 <0>         0.0962
     43 H16        -0.8523   -9.2814   -1.5794 H         1 <0>         0.0999
     44 H17         0.3281   -8.1005   -2.2040 H         1 <0>         0.1025
     45 H18         0.8970  -10.8663   -0.9872 H         1 <0>         0.1360
     46 H19         1.4592  -10.2045   -2.5610 H         1 <0>         0.1402
     47 H20         1.9687   -6.8798   -0.0442 H         1 <0>         0.1553
     48 H21         1.8969   -7.9992    1.3569 H         1 <0>         0.1375
@<TRIPOS>BOND
     1    1    2 1
     2    1   29 1
     3    1   30 1
     4    1   31 1
     5    2    3 1
     6    2   32 1
     7    2   33 1
     8    3    4 1
     9    4    5 2
    10    4    6 1
    11    6   10 2
    12    6    7 1
    13    7    8 2
    14    7   34 1
    15    8    9 1
    16    9   14 1
    17    9   10 1
    18   10   11 1
    19   11   12 2
    20   12   13 1
    21   12   16 1
    22   13   14 2
    23   13   35 1
    24   14   15 1
    25   16   17 1
    26   16   36 1
    27   16   37 1
    28   17   18 1
    29   17   21 1
    30   18   19 1
    31   18   38 1
    32   18   39 1
    33   19   20 2
    34   19   40 1
    35   20   41 1
    36   20   42 1
    37   21   22 1
    38   21   28 1
    39   21   23 1
    40   23   24 1
    41   23   43 1
    42   23   44 1
    43   24   25 1
    44   24   45 1
    45   24   46 1
    46   25   26 2
    47   25   27 2
    48   25   28 1
    49   28   47 1
    50   28   48 1
@<TRIPOS>MOLECULE
ZINC35332932
   41    43     0     0     0
SMALL
USER_CHARGES

@<TRIPOS>ATOM
      1 C1         -0.0187    1.5258    0.0104 C.3       1 <0>        -0.1509
      2 C2          0.0021   -0.0041    0.0020 C.3       1 <0>        -0.0873
      3 H1         -1.0205   -0.3814    0.0098 H         1 <0>         0.0739
      4 C3          0.7182   -0.4975   -1.2568 C.3       1 <0>        -0.1205
      5 C4          0.7390   -2.0273   -1.2652 C.3       1 <0>        -0.1200
      6 C5          1.4790   -2.5342   -0.0257 C.3       1 <0>        -0.1346
      7 C6          0.7628   -2.0407    1.2331 C.3       1 <0>         0.1471
      8 H2         -0.2598   -2.4180    1.2409 H         1 <0>         0.0851
      9 C7          0.7421   -0.5109    1.2415 C.3       1 <0>        -0.1217
     10 N1          1.4714   -2.5260    2.4200 N.pl3     1 <0>        -0.7293
     11 C8          1.1969   -3.8004    2.9257 C.ar      1 <0>         0.1893
     12 C9          0.2642   -4.6067    2.3076 C.ar      1 <0>        -0.0851
     13 C10        -0.0194   -5.8768    2.7991 C.ar      1 <0>        -0.1328
     14 C11         0.6236   -6.3639    3.9176 C.ar      1 <0>         0.2293
     15 C12         1.5818   -5.5643    4.5716 C.ar      1 <0>        -0.1237
     16 C13         1.8744   -4.2713    4.0650 C.ar      1 <0>        -0.0410
     17 C14         2.8390   -3.4972    4.7344 C.ar      1 <0>        -0.0629
     18 C15         3.4520   -4.0224    5.8313 C.ar      1 <0>         0.0264
     19 N2          3.1634   -5.2367    6.2800 N.ar      1 <0>        -0.4509
     20 C16         2.2658   -6.0088    5.7124 C.ar      1 <0>         0.2160
     21 N3          0.3269   -7.6405    4.3988 N.pl3     1 <0>        -0.8549
     22 H3          1.0039    1.9031    0.0027 H         1 <0>         0.0563
     23 H4         -0.5459    1.8868   -0.8726 H         1 <0>         0.0608
     24 H5         -0.5289    1.8773    0.9072 H         1 <0>         0.0564
     25 H6          0.1910   -0.1364   -2.1398 H         1 <0>         0.0692
     26 H7          1.7408   -0.1202   -1.2645 H         1 <0>         0.0650
     27 H8         -0.2836   -2.4046   -1.2575 H         1 <0>         0.0653
     28 H9          1.2492   -2.3788   -2.1620 H         1 <0>         0.0702
     29 H10         1.4937   -3.6240   -0.0317 H         1 <0>         0.0650
     30 H11         2.5015   -2.1569   -0.0334 H         1 <0>         0.0688
     31 H12         1.7647   -0.1336    1.2338 H         1 <0>         0.0705
     32 H13         0.2319   -0.1594    2.1383 H         1 <0>         0.0710
     33 H14         2.1309   -1.9633    2.8550 H         1 <0>         0.4016
     34 H15        -0.2531   -4.2471    1.4304 H         1 <0>         0.1487
     35 H16        -0.7539   -6.4898    2.2979 H         1 <0>         0.1490
     36 H17         3.0890   -2.5063    4.3853 H         1 <0>         0.1689
     37 H18         4.1941   -3.4337    6.3502 H         1 <0>         0.1965
     38 H19         2.0646   -6.9905    6.1152 H         1 <0>         0.2002
     39 H20        -0.3336   -8.1880    3.9461 H         1 <0>         0.4177
     40 H21         0.7812   -7.9799    5.1857 H         1 <0>         0.4007
     41 H22         3.6284   -5.5646    7.0657 H         1 <0>         0.4470
@<TRIPOS>BOND
     1    1    2 1
     2    1   22 1
     3    1   23 1
     4    1   24 1
     5    2    3 1
     6    2    9 1
     7    2    4 1
     8    4    5 1
     9    4   25 1
    10    4   26 1
    11    5    6 1
    12    5   27 1
    13    5   28 1
    14    6    7 1
    15    6   29 1
    16    6   30 1
    17    7    8 1
    18    7    9 1
    19    7   10 1
    20    9   31 1
    21    9   32 1
    22   10   11 1
    23   10   33 1
    24   11   16 ar
    25   11   12 ar
    26   12   13 ar
    27   12   34 1
    28   13   14 ar
    29   13   35 1
    30   14   15 ar
    31   14   21 1
    32   15   20 ar
    33   15   16 ar
    34   16   17 ar
    35   17   18 ar
    36   17   36 1
    37   18   19 ar
    38   18   37 1
    39   19   20 ar
    40   19   41 1
    41   20   38 1
    42   21   39 1
    43   21   40 1
@<TRIPOS>MOLECULE
ZINC41299812
   44    45     0     0     0
SMALL
USER_CHARGES

@<TRIPOS>ATOM
      1 C1         -0.0187    1.5258    0.0104 C.3       1 <0>        -0.1624
      2 C2          0.0021   -0.0041    0.0020 C.3       1 <0>        -0.0720
      3 H1          0.5123   -0.3556   -0.8948 H         1 <0>         0.0968
      4 C3          0.7309   -0.5033    1.2229 C.ar      1 <0>        -0.1054
      5 C4          0.2630   -0.1872    2.4847 C.ar      1 <0>        -0.0970
      6 C5          0.9315   -0.6452    3.6046 C.ar      1 <0>        -0.1192
      7 C6          2.0678   -1.4195    3.4627 C.ar      1 <0>        -0.0602
      8 C7          2.5353   -1.7363    2.2010 C.ar      1 <0>        -0.1136
      9 C8          1.8643   -1.2820    1.0811 C.ar      1 <0>        -0.1093
     10 C9          2.7973   -1.9179    4.6836 C.3       1 <0>        -0.0527
     11 C10         4.2307   -1.3831    4.6750 C.3       1 <0>        -0.1098
     12 C11         4.9713   -1.8891    5.9146 C.3       1 <0>        -0.1217
     13 C12         4.9976   -3.4188    5.9039 C.3       1 <0>        -0.1223
     14 C13         3.5641   -3.9536    5.9125 C.3       1 <0>        -0.1216
     15 C14         2.8236   -3.4476    4.6730 C.3       1 <0>        -0.1087
     16 C15        -1.4333   -0.5336    0.0129 C.3       1 <0>         0.0887
     17 H2         -1.4190   -1.6203    0.0965 H         1 <0>         0.1268
     18 C16        -2.1352   -0.1312   -1.2857 C.3       1 <0>        -0.0492
     19 N1         -3.5134   -0.6397   -1.2753 N.4       1 <0>        -0.6329
     20 O1         -2.1371    0.0205    1.1263 O.3       1 <0>        -0.5490
     21 H3          1.0039    1.9031    0.0027 H         1 <0>         0.0780
     22 H4         -0.5459    1.8868   -0.8726 H         1 <0>         0.0595
     23 H5         -0.5289    1.8773    0.9072 H         1 <0>         0.0658
     24 H6         -0.6248    0.4177    2.5955 H         1 <0>         0.1278
     25 H7          0.5663   -0.3977    4.5903 H         1 <0>         0.1226
     26 H8          3.4233   -2.3410    2.0902 H         1 <0>         0.1239
     27 H9          2.2274   -1.5326    0.0953 H         1 <0>         0.1201
     28 H10         2.2849   -1.5696    5.5804 H         1 <0>         0.0792
     29 H11         4.7431   -1.7314    3.7782 H         1 <0>         0.0637
     30 H12         4.2120   -0.2933    4.6826 H         1 <0>         0.0625
     31 H13         5.9925   -1.5081    5.9084 H         1 <0>         0.0651
     32 H14         4.4589   -1.5408    6.8114 H         1 <0>         0.0632
     33 H15         5.5100   -3.7671    5.0071 H         1 <0>         0.0618
     34 H16         5.5252   -3.7793    6.7870 H         1 <0>         0.0642
     35 H17         3.5829   -5.0434    5.9049 H         1 <0>         0.0646
     36 H18         3.0518   -3.6053    6.8093 H         1 <0>         0.0632
     37 H19         1.8024   -3.8286    4.6791 H         1 <0>         0.0613
     38 H20         3.3360   -3.7960    3.7762 H         1 <0>         0.0634
     39 H21        -2.1495    0.9555   -1.3693 H         1 <0>         0.1393
     40 H22        -1.5984   -0.5539   -2.1349 H         1 <0>         0.1455
     41 H23        -3.9763   -0.3743   -2.1316 H         1 <0>         0.4384
     42 H24        -3.5002   -1.6456   -1.1979 H         1 <0>         0.4365
     43 H25        -2.1892    0.9861    1.1175 H         1 <0>         0.3865
     44 H26        -4.0103   -0.2484   -0.4891 H         1 <0>         0.4385
@<TRIPOS>BOND
     1    1    2 1
     2    1   21 1
     3    1   22 1
     4    1   23 1
     5    2    3 1
     6    2    4 1
     7    2   16 1
     8    4    9 ar
     9    4    5 ar
    10    5    6 ar
    11    5   24 1
    12    6    7 ar
    13    6   25 1
    14    7    8 ar
    15    7   10 1
    16    8    9 ar
    17    8   26 1
    18    9   27 1
    19   10   15 1
    20   10   11 1
    21   10   28 1
    22   11   12 1
    23   11   29 1
    24   11   30 1
    25   12   13 1
    26   12   31 1
    27   12   32 1
    28   13   14 1
    29   13   33 1
    30   13   34 1
    31   14   15 1
    32   14   35 1
    33   14   36 1
    34   15   37 1
    35   15   38 1
    36   16   17 1
    37   16   18 1
    38   16   20 1
    39   18   19 1
    40   18   39 1
    41   18   40 1
    42   19   41 1
    43   19   42 1
    44   19   44 1
    45   20   43 1
@<TRIPOS>MOLECULE
ZINC50458160
   26    27     0     0     0
SMALL
USER_CHARGES

@<TRIPOS>ATOM
      1 C1          0.0648    1.2443   -0.6207 C.ar      1 <0>        -0.1256
      2 C2          1.2505    1.9535   -0.6183 C.ar      1 <0>        -0.0873
      3 C3          2.3815    1.4111   -0.0242 C.ar      1 <0>         0.1326
      4 C4          2.3186    0.1550    0.5673 C.ar      1 <0>        -0.0355
      5 C5          1.1305   -0.5507    0.5625 C.ar      1 <0>        -0.1236
      6 C6          0.0036   -0.0068   -0.0310 C.ar      1 <0>         0.1114
      7 F1         -1.1572   -0.6980   -0.0343 F         1 <0>        -0.1236
      8 Cl1         3.7313   -0.5270    1.3108 Cl        1 <0>        -0.0432
      9 N1          3.5847    2.1284   -0.0212 N.am      1 <0>        -0.6508
     10 C7          3.5681    3.4727   -0.1160 C.2       1 <0>         0.5414
     11 O1          2.5117    4.0685   -0.1029 O.2       1 <0>        -0.5032
     12 C8          4.8620    4.2355   -0.2383 C.3       1 <0>        -0.1718
     13 H1          5.6502    3.7368   -0.8023 H         1 <0>         0.1558
     14 C9          5.2839    5.1056    0.9474 C.3       1 <0>        -0.1199
     15 C10         4.7766    5.7597   -0.3402 C.3       1 <0>        -0.0421
     16 H2          3.7845    6.2107   -0.3188 H         1 <0>         0.1954
     17 N2          5.7635    6.4390   -1.1902 N.4       1 <0>        -0.6064
     18 H3         -0.8164    1.6683   -1.0790 H         1 <0>         0.1520
     19 H4          1.2974    2.9293   -1.0788 H         1 <0>         0.1627
     20 H5          1.0808   -1.5270    1.0216 H         1 <0>         0.1571
     21 H6          4.4299    1.6575    0.0491 H         1 <0>         0.4192
     22 H7          4.6256    5.1262    1.8159 H         1 <0>         0.1434
     23 H8          6.3498    5.1796    1.1633 H         1 <0>         0.1393
     24 H9          5.6790    6.1033   -2.1379 H         1 <0>         0.4402
     25 H10         5.5969    7.4340   -1.1697 H         1 <0>         0.4475
     26 H11         6.6925    6.2464   -0.8467 H         1 <0>         0.4351
@<TRIPOS>BOND
     1    1    6 ar
     2    1    2 ar
     3    1   18 1
     4    2    3 ar
     5    2   19 1
     6    3    4 ar
     7    3    9 1
     8    4    5 ar
     9    4    8 1
    10    5    6 ar
    11    5   20 1
    12    6    7 1
    13    9   10 am
    14    9   21 1
    15   10   11 2
    16   10   12 1
    17   12   13 1
    18   12   15 1
    19   12   14 1
    20   14   15 1
    21   14   22 1
    22   14   23 1
    23   15   16 1
    24   15   17 1
    25   17   24 1
    26   17   25 1
    27   17   26 1
@<TRIPOS>MOLECULE
ZINC57535913
   36    37     0     0     0
SMALL
USER_CHARGES

@<TRIPOS>ATOM
      1 C1         -0.3285    1.5369    0.1411 C.3       1 <0>        -0.1245
      2 C2         -0.1708    0.0388    0.1013 C.ar      1 <0>        -0.0388
      3 C3          0.0023   -0.6057   -1.1102 C.ar      1 <0>        -0.1515
      4 C4          0.1469   -1.9801   -1.1512 C.ar      1 <0>        -0.0760
      5 C5          0.1194   -2.7142    0.0185 C.ar      1 <0>        -0.1849
      6 C6         -0.0537   -2.0702    1.2368 C.ar      1 <0>         0.1954
      7 C7         -0.1936   -0.6885    1.2749 C.ar      1 <0>        -0.1444
      8 C8         -0.3760    0.0152    2.5950 C.3       1 <0>        -0.1087
      9 N1         -0.0820   -2.8095    2.4215 N.pl3     1 <0>        -0.7615
     10 C9         -0.0315   -4.2728    2.3732 C.3       1 <0>         0.2278
     11 H1          0.6371   -4.5871    1.5718 H         1 <0>         0.1209
     12 C10         0.4859   -4.8097    3.7092 C.3       1 <0>        -0.0139
     13 N2          1.7975   -4.2157    4.0007 N.4       1 <0>        -0.6356
     14 C11        -1.4139   -4.8149    2.1155 C.2       1 <0>        -0.2157
     15 C12        -1.7912   -5.8514    1.3278 C.2       1 <0>        -0.1129
     16 C13        -3.1324   -6.1748    1.2423 C.2       1 <0>        -0.1699
     17 C14        -4.0306   -5.4459    1.9487 C.2       1 <0>        -0.1440
     18 S1         -2.9787   -4.2634    2.7747 S.3       1 <0>         0.0741
     19 H2          0.6522    2.0032    0.2355 H         1 <0>         0.0758
     20 H3         -0.8053    1.8766   -0.7784 H         1 <0>         0.0724
     21 H4         -0.9466    1.8147    0.9948 H         1 <0>         0.0707
     22 H5          0.0241   -0.0341   -2.0262 H         1 <0>         0.1249
     23 H6          0.2812   -2.4803   -2.0989 H         1 <0>         0.1254
     24 H7          0.2321   -3.7879   -0.0143 H         1 <0>         0.1179
     25 H8         -1.4388    0.0799    2.8284 H         1 <0>         0.0712
     26 H9          0.1347   -0.5443    3.3786 H         1 <0>         0.0494
     27 H10         0.0440    1.0191    2.5327 H         1 <0>         0.0757
     28 H11        -0.1350   -2.3540    3.2763 H         1 <0>         0.3984
     29 H12        -0.2153   -4.5487    4.5018 H         1 <0>         0.1420
     30 H13         0.5827   -5.8939    3.6521 H         1 <0>         0.1556
     31 H14         2.1070   -4.5151    4.9131 H         1 <0>         0.4425
     32 H15         2.4641   -4.5144    3.3046 H         1 <0>         0.4386
     33 H16        -1.0549   -6.4160    0.7750 H         1 <0>         0.1355
     34 H17        -3.4597   -6.9958    0.6216 H         1 <0>         0.1420
     35 H18        -5.1039   -5.5547    2.0014 H         1 <0>         0.1925
     36 H19         1.7222   -3.2096    3.9844 H         1 <0>         0.4337
@<TRIPOS>BOND
     1    1    2 1
     2    1   19 1
     3    1   20 1
     4    1   21 1
     5    2    7 ar
     6    2    3 ar
     7    3    4 ar
     8    3   22 1
     9    4    5 ar
    10    4   23 1
    11    5    6 ar
    12    5   24 1
    13    6    7 ar
    14    6    9 1
    15    7    8 1
    16    8   25 1
    17    8   26 1
    18    8   27 1
    19    9   10 1
    20    9   28 1
    21   10   11 1
    22   10   12 1
    23   10   14 1
    24   12   13 1
    25   12   29 1
    26   12   30 1
    27   13   31 1
    28   13   32 1
    29   13   36 1
    30   14   18 1
    31   14   15 2
    32   15   16 1
    33   15   33 1
    34   16   17 2
    35   16   34 1
    36   17   18 1
    37   17   35 1
@<TRIPOS>MOLECULE
ZINC63214453
   40    41     0     0     0
SMALL
USER_CHARGES

@<TRIPOS>ATOM
      1 C1         -0.0184    1.5028    0.0103 C.3       1 <0>        -0.1295
      2 C2          0.0021   -0.0041    0.0020 C.ar      1 <0>        -0.0006
      3 C3          0.0056   -0.6859   -1.2043 C.ar      1 <0>        -0.1585
      4 C4          0.0238   -2.0636   -1.2253 C.ar      1 <0>        -0.0181
      5 C5          0.0392   -2.7787   -0.0250 C.ar      1 <0>        -0.1049
      6 C6          0.0360   -2.0849    1.1952 C.ar      1 <0>         0.2478
      7 C7          0.0228   -0.6961    1.1960 C.ar      1 <0>        -0.1943
      8 N1          0.0507   -2.7842    2.3967 N.pl3     1 <0>        -0.7617
      9 C8          0.0473   -2.0563    3.6680 C.3       1 <0>         0.1371
     10 H1         -0.5568   -1.1560    3.5554 H         1 <0>         0.1118
     11 C9          1.4924   -1.6454    4.0091 C.3       1 <0>        -0.1349
     12 C10         1.6588   -1.2742    5.4579 C.3       1 <0>        -0.1234
     13 C11         2.1348   -2.5209    6.2313 C.3       1 <0>        -0.1348
     14 C12         1.0426   -3.4311    6.5427 C.3       1 <0>        -0.1118
     15 C13         0.3616   -3.9874    5.2755 C.3       1 <0>        -0.1532
     16 C14        -0.5890   -2.9493    4.7503 C.3       1 <0>         0.0265
     17 H2         -0.9169   -2.3208    5.5782 H         1 <0>         0.1560
     18 N2         -1.7602   -3.6273    4.1788 N.4       1 <0>        -0.6384
     19 C15         0.0576   -4.2105   -0.0396 C.1       1 <0>         0.2454
     20 N3          0.0723   -5.3464   -0.0512 N.1       1 <0>        -0.4137
     21 H3          1.0042    1.8801    0.0026 H         1 <0>         0.0839
     22 H4         -0.5455    1.8639   -0.8728 H         1 <0>         0.0783
     23 H5         -0.5286    1.8543    0.9071 H         1 <0>         0.0722
     24 H6         -0.0062   -0.1346   -2.1330 H         1 <0>         0.1382
     25 H7          0.0258   -2.5899   -2.1683 H         1 <0>         0.1387
     26 H8          0.0243   -0.1572    2.1319 H         1 <0>         0.1340
     27 H9          0.0632   -3.7541    2.3932 H         1 <0>         0.3946
     28 H10         2.1590   -2.4766    3.7793 H         1 <0>         0.0811
     29 H11         1.7712   -0.7913    3.3920 H         1 <0>         0.0870
     30 H12         2.4006   -0.4809    5.5498 H         1 <0>         0.0821
     31 H13         0.7044   -0.9354    5.8610 H         1 <0>         0.0676
     32 H14         2.8738   -3.0492    5.6290 H         1 <0>         0.0695
     33 H15         2.6039   -2.2011    7.1618 H         1 <0>         0.0766
     34 H16         1.4330   -4.2637    7.1280 H         1 <0>         0.0833
     35 H17         0.3000   -2.9007    7.1386 H         1 <0>         0.0721
     36 H18         1.1165   -4.2073    4.5206 H         1 <0>         0.0979
     37 H19        -0.1875   -4.8957    5.5237 H         1 <0>         0.0916
     38 H20        -1.4718   -4.1937    3.3951 H         1 <0>         0.4275
     39 H21        -2.1842   -4.2152    4.8807 H         1 <0>         0.4392
     40 H22        -2.4290   -2.9387    3.8680 H         1 <0>         0.4377
@<TRIPOS>BOND
     1    1    2 1
     2    1   21 1
     3    1   22 1
     4    1   23 1
     5    2    7 ar
     6    2    3 ar
     7    3    4 ar
     8    3   24 1
     9    4    5 ar
    10    4   25 1
    11    5    6 ar
    12    5   19 1
    13    6    7 ar
    14    6    8 1
    15    7   26 1
    16    8    9 1
    17    8   27 1
    18    9   10 1
    19    9   16 1
    20    9   11 1
    21   11   12 1
    22   11   28 1
    23   11   29 1
    24   12   13 1
    25   12   30 1
    26   12   31 1
    27   13   14 1
    28   13   32 1
    29   13   33 1
    30   14   15 1
    31   14   34 1
    32   14   35 1
    33   15   16 1
    34   15   36 1
    35   15   37 1
    36   16   17 1
    37   16   18 1
    38   18   38 1
    39   18   39 1
    40   18   40 1
    41   19   20 3
@<TRIPOS>MOLECULE
ZINC12664446
   53    55     0     0     0
SMALL
USER_CHARGES
(2S,3R)-2-[[(2S)-2-(1,2-dihydroimidazo[3,2-a]benzimidazole-3-carbonylamino)-3-methyl-butanoyl]amino]-3-hydroxy-butanoic acid
@<TRIPOS>ATOM
      1 C1          4.0715    4.8757    2.1606 C.3       1 <0>        -0.1323
      2 C2          5.0793    3.9363    1.4952 C.3       1 <0>        -0.0987
      3 C3          4.7810    2.4935    1.9078 C.3       1 <0>        -0.1444
      4 C4          4.9695    4.0650   -0.0254 C.3       1 <0>         0.1508
      5 H1          5.1122    5.1066   -0.3131 H         1 <0>         0.1055
      6 C5          6.0274    3.2138   -0.6792 C.2       1 <0>         0.5148
      7 O1          5.7394    2.1217   -1.1210 O.2       1 <0>        -0.5346
      8 N1          7.2935    3.6662   -0.7730 N.am      1 <0>        -0.6866
      9 C6          8.3444    2.7966   -1.3071 C.3       1 <0>         0.1073
     10 H2          7.9292    2.1652   -2.0927 H         1 <0>         0.0999
     11 C7          9.4717    3.6546   -1.8850 C.3       1 <0>         0.1102
     12 H3         10.2110    3.0106   -2.3612 H         1 <0>         0.0743
     13 C8          8.8962    4.6228   -2.9205 C.3       1 <0>        -0.1820
     14 O2         10.0929    4.3961   -0.8332 O.3       1 <0>        -0.5539
     15 C9          8.8893    1.9297   -0.2014 C.2       1 <0>         0.4704
     16 O3          8.4453    2.0282    0.9180 O.co2     1 <0>        -0.6223
     17 N2          3.6443    3.6157   -0.4591 N.am      1 <0>        -0.7033
     18 C10         2.6033    4.4715   -0.4410 C.2       1 <0>         0.7315
     19 O4          2.7640    5.6163   -0.0648 O.2       1 <0>        -0.5591
     20 N3          1.3841    4.0582   -0.8400 N.am      1 <0>        -0.5428
     21 C11         0.1732    4.8859   -0.8693 C.3       1 <0>         0.1198
     22 C12        -0.9222    3.9469   -1.4015 C.3       1 <0>         0.1033
     23 N4         -0.2387    2.6646   -1.6210 N.pl3     1 <0>        -0.5225
     24 C13         1.0745    2.7823   -1.2883 C.2       1 <0>         0.4866
     25 N5          1.6796    1.6269   -1.4935 N.2       1 <0>        -0.4966
     26 C14         0.7901    0.7179   -1.9646 C.ar      1 <0>         0.0852
     27 C15        -0.4522    1.3659   -2.0544 C.ar      1 <0>         0.0690
     28 C16        -1.5640    0.6752   -2.5112 C.ar      1 <0>        -0.1077
     29 C17        -1.4454   -0.6498   -2.8779 C.ar      1 <0>        -0.1091
     30 C18        -0.2210   -1.2954   -2.7915 C.ar      1 <0>        -0.1218
     31 C19         0.8932   -0.6244   -2.3395 C.ar      1 <0>        -0.0662
     32 H4          3.0629    4.6088    1.8453 H         1 <0>         0.0499
     33 H5          4.1497    4.7841    3.2440 H         1 <0>         0.0494
     34 H6          4.2840    5.9036    1.8667 H         1 <0>         0.0600
     35 H7          6.0880    4.2033    1.8106 H         1 <0>         0.0925
     36 H8          5.5430    1.8326    1.4947 H         1 <0>         0.0716
     37 H9          4.7855    2.4182    2.9952 H         1 <0>         0.0530
     38 H10         3.8021    2.2018    1.5274 H         1 <0>         0.0479
     39 H11         7.5088    4.5677   -0.4868 H         1 <0>         0.3976
     40 H12         9.6993    5.2341   -3.3321 H         1 <0>         0.0548
     41 H13         8.4223    4.0572   -3.7228 H         1 <0>         0.0638
     42 H14         8.1569    5.2668   -2.4443 H         1 <0>         0.0598
     43 H15        10.8185    4.9636   -1.1274 H         1 <0>         0.3672
     44 H16         3.5160    2.7023   -0.7592 H         1 <0>         0.4259
     45 H17        -0.0741    5.2340    0.1336 H         1 <0>         0.1055
     46 H18         0.3064    5.7313   -1.5444 H         1 <0>         0.1047
     47 H19        -1.3260    4.3276   -2.3396 H         1 <0>         0.1017
     48 H20        -1.7163    3.8326   -0.6636 H         1 <0>         0.1021
     49 H21        -2.5200    1.1728   -2.5803 H         1 <0>         0.1201
     50 H22        -2.3117   -1.1877   -3.2337 H         1 <0>         0.1295
     51 H23        -0.1409   -2.3328   -3.0808 H         1 <0>         0.1314
     52 H24         1.8433   -1.1337   -2.2745 H         1 <0>         0.1365
     53 O5          9.8679    1.0481   -0.4601 O.co2     1 <0>        -0.7698
@<TRIPOS>BOND
     1    1    2 1
     2    1   32 1
     3    1   33 1
     4    1   34 1
     5    2    3 1
     6    2    4 1
     7    2   35 1
     8    3   36 1
     9    3   37 1
    10    3   38 1
    11    4    5 1
    12    4    6 1
    13    4   17 1
    14    6    7 2
    15    6    8 am
    16    8    9 1
    17    8   39 1
    18    9   10 1
    19    9   11 1
    20    9   15 1
    21   11   12 1
    22   11   13 1
    23   11   14 1
    24   13   40 1
    25   13   41 1
    26   13   42 1
    27   14   43 1
    28   15   16 2
    29   15   53 1
    30   17   18 am
    31   17   44 1
    32   18   19 2
    33   18   20 am
    34   20   24 1
    35   20   21 1
    36   21   22 1
    37   21   45 1
    38   21   46 1
    39   22   23 1
    40   22   47 1
    41   22   48 1
    42   23   27 1
    43   23   24 1
    44   24   25 2
    45   25   26 1
    46   26   31 ar
    47   26   27 ar
    48   27   28 ar
    49   28   29 ar
    50   28   49 1
    51   29   30 ar
    52   29   50 1
    53   30   31 ar
    54   30   51 1
    55   31   52 1
@<TRIPOS>MOLECULE
ZINC13314578
   44    45     0     0     0
SMALL
USER_CHARGES
(E)-3-[3-[[2-(2-furylmethylamino)-2-oxo-ethyl]sulfamoyl]-4-methoxy-phenyl]prop-2-enoic acid
@<TRIPOS>ATOM
      1 C1         -0.0127    1.0858    0.0080 C.3       1 <0>         0.0214
      2 O1         -0.6816    1.5467    1.1837 O.3       1 <0>        -0.3186
      3 C2         -0.7873    2.8901    1.3460 C.ar      1 <0>         0.2014
      4 C3         -0.2506    3.7475    0.3918 C.ar      1 <0>        -0.2169
      5 C4         -0.3594    5.1105    0.5491 C.ar      1 <0>        -0.0262
      6 C5         -1.0023    5.6334    1.6777 C.ar      1 <0>        -0.0821
      7 C6         -1.5360    4.7659    2.6379 C.ar      1 <0>         0.0170
      8 C7         -1.4265    3.4040    2.4683 C.ar      1 <0>        -0.7013
      9 S1         -2.0973    2.3106    3.6762 S.o2      1 <0>         2.7092
     10 O2         -1.0801    1.3655    3.9780 O.2       1 <0>        -0.9476
     11 O3         -2.6995    3.1259    4.6722 O.2       1 <0>        -0.9539
     12 N1         -3.3239    1.4695    2.9479 N.pl3     1 <0>        -1.1053
     13 C8         -3.0280    0.5487    1.8475 C.3       1 <0>         0.1079
     14 C9         -4.2157   -0.3478    1.6096 C.2       1 <0>         0.5159
     15 O4         -5.2113   -0.2294    2.2920 O.2       1 <0>        -0.5266
     16 N2         -4.1715   -1.2813    0.6384 N.am      1 <0>        -0.7279
     17 C10        -5.3261   -2.1529    0.4072 C.3       1 <0>         0.2031
     18 C11        -5.0218   -3.1001   -0.7248 C.2       1 <0>        -0.0410
     19 C12        -4.4605   -4.3165   -0.6033 C.2       1 <0>        -0.1810
     20 C13        -4.3598   -4.8531   -1.9075 C.2       1 <0>        -0.2184
     21 C14        -4.8654   -3.9326   -2.7478 C.2       1 <0>        -0.0268
     22 O5         -5.2702   -2.8752   -2.0253 O.3       1 <0>        -0.1709
     23 C15        -1.1158    7.0879    1.8538 C.2       1 <0>        -0.1137
     24 C16        -0.5999    7.9230    0.9258 C.2       1 <0>        -0.1410
     25 C17        -0.7094    9.3263    1.0957 C.2       1 <0>         0.4686
     26 O6         -1.2681    9.7784    2.0772 O.co2     1 <0>        -0.6340
     27 H1          0.0021   -0.0041    0.0020 H         1 <0>         0.1062
     28 H2          1.0099    1.4631    0.0003 H         1 <0>         0.0640
     29 H3         -0.5399    1.4469   -0.8751 H         1 <0>         0.0618
     30 H4          0.2490    3.3432   -0.4761 H         1 <0>         0.1377
     31 H5          0.0541    5.7756   -0.1946 H         1 <0>         0.1408
     32 H6         -2.0332    5.1642    3.5100 H         1 <0>         0.1541
     33 H7         -4.2382    1.5865    3.2499 H         1 <0>         0.4274
     34 H8         -2.8166    1.1193    0.9431 H         1 <0>         0.0990
     35 H9         -2.1602   -0.0585    2.1051 H         1 <0>         0.1173
     36 H10        -3.3753   -1.3761    0.0926 H         1 <0>         0.4064
     37 H11        -5.5375   -2.7235    1.3115 H         1 <0>         0.1022
     38 H12        -6.1939   -1.5457    0.1495 H         1 <0>         0.0880
     39 H13        -4.1466   -4.7918    0.3142 H         1 <0>         0.1519
     40 H14        -3.9542   -5.8171   -2.1772 H         1 <0>         0.1512
     41 H15        -4.9384   -4.0294   -3.8210 H         1 <0>         0.2054
     42 H16        -1.6118    7.4892    2.7253 H         1 <0>         0.1345
     43 H17        -0.1039    7.5217    0.0544 H         1 <0>         0.1053
     44 O7         -0.1941   10.1605    0.1687 O.co2     1 <0>        -0.7646
@<TRIPOS>BOND
     1    1    2 1
     2    1   27 1
     3    1   28 1
     4    1   29 1
     5    2    3 1
     6    3    8 ar
     7    3    4 ar
     8    4    5 ar
     9    4   30 1
    10    5    6 ar
    11    5   31 1
    12    6    7 ar
    13    6   23 1
    14    7    8 ar
    15    7   32 1
    16    8    9 1
    17    9   10 2
    18    9   11 2
    19    9   12 1
    20   12   13 1
    21   12   33 1
    22   13   14 1
    23   13   34 1
    24   13   35 1
    25   14   15 2
    26   14   16 am
    27   16   17 1
    28   16   36 1
    29   17   18 1
    30   17   37 1
    31   17   38 1
    32   18   22 1
    33   18   19 2
    34   19   20 1
    35   19   39 1
    36   20   21 2
    37   20   40 1
    38   21   22 1
    39   21   41 1
    40   23   24 2
    41   23   42 1
    42   24   25 1
    43   24   43 1
    44   25   26 2
    45   25   44 1
@<TRIPOS>MOLECULE
ZINC35645544
   50    52     0     0     0
SMALL
USER_CHARGES

@<TRIPOS>ATOM
      1 C1         -0.0187    1.5258    0.0104 C.3       1 <0>        -0.1435
      2 C2          0.0021   -0.0041    0.0020 C.3       1 <0>        -0.0370
      3 H1          0.5123   -0.3556   -0.8948 H         1 <0>         0.1145
      4 C3          0.7309   -0.5033    1.2229 C.ar      1 <0>        -0.0775
      5 C4          0.2500   -0.1784    2.4901 C.ar      1 <0>        -0.0676
      6 C5          0.8845   -0.6132    3.6128 C.ar      1 <0>        -0.1153
      7 C6          2.0421   -1.4021    3.4963 C.ar      1 <0>        -0.0071
      8 C7          2.7227   -1.8690    4.6328 C.ar      1 <0>        -0.1510
      9 C8          3.8441   -2.6337    4.4813 C.ar      1 <0>         0.1246
     10 C9          4.3247   -2.9581    3.2087 C.ar      1 <0>        -0.1947
     11 C10         3.6888   -2.5213    2.0890 C.ar      1 <0>        -0.0625
     12 C11         2.5308   -1.7327    2.2075 C.ar      1 <0>        -0.0839
     13 C12         1.8458   -1.2692    1.0715 C.ar      1 <0>        -0.0856
     14 O1          4.5017   -3.0848    5.5816 O.3       1 <0>        -0.3187
     15 C13         5.6681   -3.8800    5.3596 C.3       1 <0>         0.0273
     16 C14        -1.4117   -0.5257    0.0127 C.2       1 <0>         0.4639
     17 O2         -1.7888   -1.2305    0.9188 O.2       1 <0>        -0.4717
     18 O3         -2.2521   -0.2073   -0.9843 O.3       1 <0>        -0.3404
     19 C15        -3.5774   -0.7367   -0.9097 C.3       1 <0>         0.2215
     20 H2         -3.5303   -1.8093   -0.7218 H         1 <0>         0.0682
     21 C16        -4.3042   -0.4816   -2.2327 C.3       1 <0>         0.0665
     22 H3         -3.7892   -1.0052   -3.0382 H         1 <0>         0.0736
     23 C17        -5.7423   -0.9978   -2.1240 C.3       1 <0>         0.1211
     24 H4         -5.7316   -2.0760   -1.9646 H         1 <0>         0.0759
     25 C18        -6.4313   -0.3116   -0.9405 C.3       1 <0>         0.1078
     26 H5         -6.4860    0.7616   -1.1231 H         1 <0>         0.0733
     27 C19        -5.6223   -0.5732    0.3326 C.3       1 <0>         0.0052
     28 H6         -5.6021   -1.6437    0.5369 H         1 <0>         0.0621
     29 O4         -4.2868   -0.0973    0.1533 O.3       1 <0>        -0.3428
     30 C20        -6.2616    0.1476    1.4914 C.2       1 <0>         0.5102
     31 O5         -7.3744   -0.1750    1.8709 O.co2     1 <0>        -0.6813
     32 O6         -5.6659    1.0533    2.0494 O.co2     1 <0>        -0.6593
     33 O7         -7.7509   -0.8376   -0.7857 O.3       1 <0>        -0.5607
     34 O8         -6.4496   -0.6998   -3.3294 O.3       1 <0>        -0.5348
     35 O9         -4.3184    0.9208   -2.5071 O.3       1 <0>        -0.5318
     36 H7          1.0039    1.9031    0.0027 H         1 <0>         0.0731
     37 H8         -0.5459    1.8868   -0.8726 H         1 <0>         0.0755
     38 H9         -0.5289    1.8773    0.9072 H         1 <0>         0.0690
     39 H10        -0.6392    0.4276    2.5823 H         1 <0>         0.1279
     40 H11         0.5008   -0.3530    4.5883 H         1 <0>         0.1312
     41 H12         2.3615   -1.6244    5.6208 H         1 <0>         0.1347
     42 H13         5.2138   -3.5640    3.1139 H         1 <0>         0.1284
     43 H14         4.0716   -2.7789    1.1125 H         1 <0>         0.1303
     44 H15         2.2043   -1.5163    0.0832 H         1 <0>         0.1276
     45 H16         6.4008   -3.3012    4.7973 H         1 <0>         0.0545
     46 H17         6.0954   -4.1737    6.3184 H         1 <0>         0.0989
     47 H18         5.3977   -4.7716    4.7939 H         1 <0>         0.0547
     48 H19        -8.2465   -0.4472   -0.0528 H         1 <0>         0.3965
     49 H20        -6.0631   -1.0985   -4.1210 H         1 <0>         0.3692
     50 H21        -3.4389    1.3153   -2.5846 H         1 <0>         0.3799
@<TRIPOS>BOND
     1    1    2 1
     2    1   36 1
     3    1   37 1
     4    1   38 1
     5    2    3 1
     6    2    4 1
     7    2   16 1
     8    4   13 ar
     9    4    5 ar
    10    5    6 ar
    11    5   39 1
    12    6    7 ar
    13    6   40 1
    14    7   12 ar
    15    7    8 ar
    16    8    9 ar
    17    8   41 1
    18    9   10 ar
    19    9   14 1
    20   10   11 ar
    21   10   42 1
    22   11   12 ar
    23   11   43 1
    24   12   13 ar
    25   13   44 1
    26   14   15 1
    27   15   45 1
    28   15   46 1
    29   15   47 1
    30   16   17 2
    31   16   18 1
    32   18   19 1
    33   19   20 1
    34   19   29 1
    35   19   21 1
    36   21   22 1
    37   21   23 1
    38   21   35 1
    39   23   24 1
    40   23   25 1
    41   23   34 1
    42   25   26 1
    43   25   27 1
    44   25   33 1
    45   27   28 1
    46   27   29 1
    47   27   30 1
    48   30   31 2
    49   30   32 1
    50   33   48 1
    51   34   49 1
    52   35   50 1
@<TRIPOS>MOLECULE
ZINC50940880
   43    44     0     0     0
SMALL
USER_CHARGES

@<TRIPOS>ATOM
      1 C1          0.1959    0.9089    1.3677 C.3       1 <0>         0.0286
      2 O1          0.0521   -0.1212    0.3877 O.3       1 <0>        -0.3128
      3 C2         -1.1646   -0.7236    0.2988 C.ar      1 <0>         0.0632
      4 C3         -2.1971   -0.3264    1.1332 C.ar      1 <0>        -0.1512
      5 C4         -3.4334   -0.9369    1.0438 C.ar      1 <0>        -0.1112
      6 C5         -3.6440   -1.9499    0.1174 C.ar      1 <0>         0.1839
      7 C6         -2.6116   -2.3502   -0.7201 C.ar      1 <0>        -0.2154
      8 C7         -1.3739   -1.7348   -0.6342 C.ar      1 <0>         0.1133
      9 O2         -0.3628   -2.1213   -1.4573 O.3       1 <0>        -0.3089
     10 C8         -0.6489   -3.1651   -2.3904 C.3       1 <0>         0.0274
     11 N1         -4.8971   -2.5676    0.0285 N.pl3     1 <0>        -0.6738
     12 C9         -6.0289   -1.8495    0.2685 C.2       1 <0>         0.5482
     13 O3         -5.9504   -0.5236    0.4915 O.3       1 <0>        -0.6186
     14 C10        -7.2696   -2.4871    0.2834 C.2       1 <0>        -0.4447
     15 C11        -7.3530   -3.8969    0.0463 C.1       1 <0>         0.2975
     16 N2         -7.4192   -5.0153   -0.1418 N.1       1 <0>        -0.5377
     17 C12        -8.4848   -1.7160    0.5411 C.2       1 <0>         0.4624
     18 O4         -8.4280   -0.5027    0.6342 O.2       1 <0>        -0.4784
     19 C13        -9.7810   -2.4080    0.6886 C.ar      1 <0>        -0.1697
     20 C14        -9.8269   -3.7065    1.2039 C.ar      1 <0>         0.0093
     21 C15       -11.0363   -4.3488    1.3401 C.ar      1 <0>        -0.2037
     22 C16       -12.2133   -3.7067    0.9650 C.ar      1 <0>         0.2839
     23 C17       -12.1707   -2.4137    0.4516 C.ar      1 <0>        -0.1333
     24 C18       -10.9646   -1.7638    0.3188 C.ar      1 <0>         0.0208
     25 N3        -13.4243   -1.7345    0.0539 N.pl3     1 <0>         0.0483
     26 O5        -13.4455   -1.0324   -0.9301 O.2       1 <0>        -0.1536
     27 O6        -14.4271   -1.8819    0.7130 O.3       1 <0>        -0.1878
     28 N4        -13.4343   -4.3589    1.1030 N.pl3     1 <0>        -0.8560
     29 H1          1.2112    1.3040    1.3332 H         1 <0>         0.0937
     30 H2         -0.5131    1.7101    1.1594 H         1 <0>         0.0528
     31 H3         -0.0007    0.4981    2.3581 H         1 <0>         0.0513
     32 H4         -2.0352    0.4610    1.8545 H         1 <0>         0.1332
     33 H5         -4.2368   -0.6262    1.6953 H         1 <0>         0.1491
     34 H6         -2.7746   -3.1382   -1.4405 H         1 <0>         0.1319
     35 H7         -0.9466   -4.0638   -1.8502 H         1 <0>         0.0522
     36 H8         -1.4591   -2.8518   -3.0488 H         1 <0>         0.0535
     37 H9          0.2407   -3.3759   -2.9839 H         1 <0>         0.0956
     38 H10        -4.9591   -3.5073   -0.2042 H         1 <0>         0.4001
     39 H11        -8.9142   -4.2054    1.4945 H         1 <0>         0.1469
     40 H12       -11.0725   -5.3521    1.7382 H         1 <0>         0.1426
     41 H13       -10.9326   -0.7588   -0.0755 H         1 <0>         0.1522
     42 H14       -13.4763   -5.2209    1.5459 H         1 <0>         0.4074
     43 H15       -14.2436   -3.9517    0.7564 H         1 <0>         0.4075
@<TRIPOS>BOND
     1    1    2 1
     2    1   29 1
     3    1   30 1
     4    1   31 1
     5    2    3 1
     6    3    8 ar
     7    3    4 ar
     8    4    5 ar
     9    4   32 1
    10    5    6 ar
    11    5   33 1
    12    6    7 ar
    13    6   11 1
    14    7    8 ar
    15    7   34 1
    16    8    9 1
    17    9   10 1
    18   10   35 1
    19   10   36 1
    20   10   37 1
    21   11   12 1
    22   11   38 1
    23   12   13 1
    24   12   14 2
    25   14   15 1
    26   14   17 1
    27   15   16 3
    28   17   18 2
    29   17   19 1
    30   19   24 ar
    31   19   20 ar
    32   20   21 ar
    33   20   39 1
    34   21   22 ar
    35   21   40 1
    36   22   23 ar
    37   22   28 1
    38   23   24 ar
    39   23   25 1
    40   24   41 1
    41   25   26 2
    42   25   27 1
    43   28   42 1
    44   28   43 1
@<TRIPOS>MOLECULE
ZINC66579222
   45    46     0     0     0
SMALL
USER_CHARGES

@<TRIPOS>ATOM
      1 C1         -0.0187    1.5258    0.0104 C.3       1 <0>        -0.1468
      2 C2          0.0021   -0.0041    0.0020 C.3       1 <0>        -0.1355
      3 C3         -1.4333   -0.5336    0.0129 C.3       1 <0>         0.1263
      4 N1         -1.4134   -1.9985    0.0048 N.pl3     1 <0>        -0.7330
      5 C4         -2.6164   -2.7150    0.0125 C.ar      1 <0>         0.2211
      6 C5         -3.8276   -2.0401    0.0218 C.ar      1 <0>        -0.1959
      7 C6         -5.0143   -2.7497    0.0289 C.ar      1 <0>        -0.0641
      8 C7         -4.9979   -4.1321    0.0266 C.ar      1 <0>        -0.6608
      9 C8         -3.7946   -4.8132    0.0173 C.ar      1 <0>        -0.1530
     10 C9         -2.5998   -4.1096    0.0048 C.ar      1 <0>         0.2143
     11 N2         -1.3802   -4.7972   -0.0101 N.2       1 <0>        -1.1044
     12 S1         -1.3632   -6.4531   -0.0191 S.o2      1 <0>         2.6389
     13 O1         -1.8985   -6.8716    1.2290 O.2       1 <0>        -1.0324
     14 O2         -1.9213   -6.8582   -1.2616 O.2       1 <0>        -1.0321
     15 C10         0.3251   -6.9568   -0.0373 C.2       1 <0>        -0.7517
     16 C11         1.1051   -7.1800   -1.1767 C.2       1 <0>         0.1294
     17 N3          2.3017   -7.5398   -0.7888 N.2       1 <0>        -0.3057
     18 N4          2.3211   -7.5569    0.6118 N.pl3     1 <0>        -0.3729
     19 C12         1.0980   -7.1902    1.0486 C.2       1 <0>         0.1616
     20 C13         3.4682   -7.9056    1.4537 C.3       1 <0>         0.1252
     21 C14         3.9876   -9.2899    1.0602 C.3       1 <0>        -0.1649
     22 S2         -6.5147   -5.0287    0.0362 S.o2      1 <0>         2.6926
     23 O3         -6.2266   -6.3083    0.5830 O.2       1 <0>        -0.9742
     24 O4         -7.4939   -4.1642    0.5955 O.2       1 <0>        -0.9850
     25 N5         -6.9476   -5.2754   -1.5430 N.pl3     1 <0>        -1.2538
     26 H1          1.0039    1.9031    0.0027 H         1 <0>         0.0544
     27 H2         -0.5459    1.8868   -0.8726 H         1 <0>         0.0552
     28 H3         -0.5289    1.8773    0.9072 H         1 <0>         0.0551
     29 H4          0.5123   -0.3556   -0.8948 H         1 <0>         0.0667
     30 H5          0.5293   -0.3651    0.8851 H         1 <0>         0.0662
     31 H6         -1.9435   -0.1821    0.9097 H         1 <0>         0.0515
     32 H7         -1.9605   -0.1726   -0.8702 H         1 <0>         0.0516
     33 H8         -0.5669   -2.4720   -0.0058 H         1 <0>         0.4111
     34 H9         -3.8441   -0.9603    0.0240 H         1 <0>         0.1146
     35 H10        -5.9569   -2.2225    0.0366 H         1 <0>         0.1217
     36 H11        -3.7853   -5.8932    0.0159 H         1 <0>         0.1153
     37 H12         0.7763   -7.0738   -2.1999 H         1 <0>         0.1922
     38 H13         0.7904   -7.1016    2.0801 H         1 <0>         0.1856
     39 H14         4.2585   -7.1679    1.3146 H         1 <0>         0.0853
     40 H15         3.1613   -7.9165    2.4996 H         1 <0>         0.0969
     41 H16         4.8411   -9.5493    1.6865 H         1 <0>         0.0739
     42 H17         3.1972  -10.0275    1.1993 H         1 <0>         0.0610
     43 H18         4.2944   -9.2790    0.0143 H         1 <0>         0.0705
     44 H19        -6.3854   -4.9389   -2.2583 H         1 <0>         0.4167
     45 H20        -7.7635   -5.7564   -1.7528 H         1 <0>         0.4114
@<TRIPOS>BOND
     1    1    2 1
     2    1   26 1
     3    1   27 1
     4    1   28 1
     5    2    3 1
     6    2   29 1
     7    2   30 1
     8    3    4 1
     9    3   31 1
    10    3   32 1
    11    4    5 1
    12    4   33 1
    13    5   10 ar
    14    5    6 ar
    15    6    7 ar
    16    6   34 1
    17    7    8 ar
    18    7   35 1
    19    8    9 ar
    20    8   22 1
    21    9   10 ar
    22    9   36 1
    23   10   11 1
    24   11   12 1
    25   12   13 2
    26   12   14 2
    27   12   15 1
    28   15   19 2
    29   15   16 1
    30   16   17 2
    31   16   37 1
    32   17   18 1
    33   18   19 1
    34   18   20 1
    35   19   38 1
    36   20   21 1
    37   20   39 1
    38   20   40 1
    39   21   41 1
    40   21   42 1
    41   21   43 1
    42   22   23 2
    43   22   24 2
    44   22   25 1
    45   25   44 1
    46   25   45 1
@<TRIPOS>MOLECULE
ZINC16927959
   50    52     0     0     0
SMALL
USER_CHARGES
2-[[(5Z)-3-ethyl-5-[[2-[(1R)-2-hydroxy-1-methyl-2-oxo-ethoxy]phenyl]methylene]-4-oxo-thiazolidin-2-ylidene]amino]-5-hydroxy-benzoic acid
@<TRIPOS>ATOM
      1 C1          2.0470   -2.4589   -1.8927 C.3       1 <0>        -0.1598
      2 C2          1.8742   -2.7044   -0.3924 C.3       1 <0>         0.0978
      3 N1          1.6120   -1.4316    0.2837 N.am      1 <0>        -0.5369
      4 C3          0.3662   -1.0136    0.4316 C.2       1 <0>         0.5592
      5 O1         -0.5762   -1.6629    0.0170 O.2       1 <0>        -0.4951
      6 C4          0.1706    0.2755    1.1214 C.2       1 <0>        -0.2217
      7 C5         -0.9818    0.9364    1.4021 C.2       1 <0>         0.0841
      8 C6         -0.9325    2.2883    1.9718 C.ar      1 <0>        -0.1313
      9 C7          0.1592    3.1241    1.7090 C.ar      1 <0>        -0.0526
     10 C8          0.1956    4.3936    2.2430 C.ar      1 <0>        -0.1719
     11 C9         -0.8384    4.8437    3.0480 C.ar      1 <0>        -0.0581
     12 C10        -1.9196    4.0276    3.3207 C.ar      1 <0>        -0.2243
     13 C11        -1.9776    2.7496    2.7889 C.ar      1 <0>         0.1795
     14 O2         -3.0395    1.9475    3.0559 O.3       1 <0>        -0.2762
     15 C12        -4.0787    2.4960    3.8690 C.3       1 <0>         0.0355
     16 H1         -4.1904    3.5576    3.6486 H         1 <0>         0.0766
     17 C13        -3.7194    2.3167    5.3454 C.3       1 <0>        -0.1570
     18 C14        -5.3740    1.7834    3.5771 C.2       1 <0>         0.4737
     19 O3         -5.3872    0.8380    2.8247 O.co2     1 <0>        -0.6096
     20 S1          1.8591    0.7370    1.4811 S.3       1 <0>        -0.0571
     21 C15         2.6649   -0.6831    0.7590 C.2       1 <0>         0.3828
     22 N2          3.9529   -0.9495    0.6960 N.2       1 <0>        -0.3978
     23 C16         4.8585   -0.0478    1.1666 C.ar      1 <0>         0.1167
     24 C17         4.8223    1.2795    0.7290 C.ar      1 <0>        -0.1418
     25 C18         5.7387    2.1882    1.2076 C.ar      1 <0>        -0.1261
     26 C19         6.7067    1.7972    2.1281 C.ar      1 <0>         0.0739
     27 C20         6.7609    0.4910    2.5741 C.ar      1 <0>        -0.0879
     28 C21         5.8359   -0.4458    2.1036 C.ar      1 <0>        -0.0846
     29 C22         5.8838   -1.8369    2.5782 C.2       1 <0>         0.4879
     30 O4          5.0797   -2.6486    2.1634 O.co2     1 <0>        -0.6014
     31 O5          7.6048    2.7071    2.5918 O.3       1 <0>        -0.5006
     32 H2          2.8852   -1.7814   -2.0558 H         1 <0>         0.0603
     33 H3          2.2421   -3.4060   -2.3957 H         1 <0>         0.0709
     34 H4          1.1369   -2.0144   -2.2953 H         1 <0>         0.0557
     35 H5          2.7844   -3.1490    0.0102 H         1 <0>         0.1080
     36 H6          1.0361   -3.3819   -0.2293 H         1 <0>         0.0904
     37 H7         -1.9348    0.4674    1.2063 H         1 <0>         0.1630
     38 H8          0.9694    2.7760    1.0854 H         1 <0>         0.1396
     39 H9          1.0360    5.0397    2.0362 H         1 <0>         0.1248
     40 H10        -0.7988    5.8390    3.4655 H         1 <0>         0.1234
     41 H11        -2.7211    4.3868    3.9492 H         1 <0>         0.1357
     42 H12        -3.6077    1.2551    5.5658 H         1 <0>         0.0623
     43 H13        -2.7825    2.8322    5.5565 H         1 <0>         0.0517
     44 H14        -4.5121    2.7351    5.9656 H         1 <0>         0.0778
     45 H15         4.0746    1.5921    0.0152 H         1 <0>         0.1274
     46 H16         5.7062    3.2125    0.8665 H         1 <0>         0.1257
     47 H17         7.5145    0.1946    3.2888 H         1 <0>         0.1413
     48 H18         7.3166    3.1735    3.3883 H         1 <0>         0.3816
     49 O6         -6.5132    2.1988    4.1529 O.co2     1 <0>        -0.7556
     50 O7          6.8195   -2.2118    3.4734 O.co2     1 <0>        -0.7601
@<TRIPOS>BOND
     1    1    2 1
     2    1   32 1
     3    1   33 1
     4    1   34 1
     5    2    3 1
     6    2   35 1
     7    2   36 1
     8    3   21 1
     9    3    4 am
    10    4    5 2
    11    4    6 1
    12    6    7 2
    13    6   20 1
    14    7    8 1
    15    7   37 1
    16    8   13 ar
    17    8    9 ar
    18    9   10 ar
    19    9   38 1
    20   10   11 ar
    21   10   39 1
    22   11   12 ar
    23   11   40 1
    24   12   13 ar
    25   12   41 1
    26   13   14 1
    27   14   15 1
    28   15   16 1
    29   15   17 1
    30   15   18 1
    31   17   42 1
    32   17   43 1
    33   17   44 1
    34   18   19 2
    35   18   49 1
    36   20   21 1
    37   21   22 2
    38   22   23 1
    39   23   28 ar
    40   23   24 ar
    41   24   25 ar
    42   24   45 1
    43   25   26 ar
    44   25   46 1
    45   26   27 ar
    46   26   31 1
    47   27   28 ar
    48   27   47 1
    49   28   29 1
    50   29   30 2
    51   29   50 1
    52   31   48 1
@<TRIPOS>MOLECULE
ZINC35675023
   48    50     0     0     0
SMALL
USER_CHARGES

@<TRIPOS>ATOM
      1 C1          1.8040   -2.6621    0.6559 C.3       1 <0>        -0.1448
      2 C2          0.9913   -2.2389   -0.5694 C.3       1 <0>         0.0819
      3 C3          1.6856   -2.7366   -1.8386 C.3       1 <0>        -0.1684
      4 O1         -0.3189   -2.8039   -0.4903 O.3       1 <0>        -0.3426
      5 C4         -1.3053   -2.1589   -1.1485 C.2       1 <0>         0.5729
      6 O2         -1.0428   -1.1989   -1.8490 O.2       1 <0>        -0.5143
      7 C5         -2.6423   -2.5982   -1.0242 C.2       1 <0>        -0.3367
      8 C6         -3.1113   -3.6438   -1.7637 C.2       1 <0>         0.1635
      9 N1         -4.3708   -4.0529   -1.6425 N.2       1 <0>        -0.5918
     10 C7         -5.2518   -3.5218   -0.8399 C.2       1 <0>         0.2894
     11 N2         -4.9838   -2.4617   -0.0110 N.pl3     1 <0>        -0.5052
     12 C8         -3.5982   -1.9277   -0.0618 C.3       1 <0>         0.2873
     13 H1         -3.6578   -0.8722   -0.3274 H         1 <0>         0.0784
     14 C9         -3.0076   -2.0216    1.3214 C.ar      1 <0>        -0.1024
     15 C10        -3.3361   -3.0827    2.1430 C.ar      1 <0>        -0.0395
     16 C11        -2.7950   -3.1691    3.4122 C.ar      1 <0>        -0.1514
     17 C12        -1.9234   -2.1945    3.8626 C.ar      1 <0>        -0.0861
     18 C13        -1.5914   -1.1320    3.0450 C.ar      1 <0>        -0.2101
     19 C14        -2.1291   -1.0457    1.7688 C.ar      1 <0>         0.1381
     20 O3         -1.7997   -0.0042    0.9603 O.3       1 <0>        -0.3084
     21 C15        -0.8100    0.9055    1.4451 C.3       1 <0>         0.0330
     22 C16        -6.0225   -2.0285    0.7664 C.2       1 <0>         0.2230
     23 C17        -7.2972   -2.7382    0.6299 C.2       1 <0>        -0.5007
     24 S1         -6.9593   -3.9083   -0.5271 S.3       1 <0>         0.1932
     25 C18        -5.8765   -0.9718    1.6396 C.2       1 <0>        -0.4286
     26 C19        -6.9190   -0.6503    2.5427 C.2       1 <0>         0.4953
     27 O4         -7.9831   -1.4487    2.6448 O.co2     1 <0>        -0.7446
     28 O5         -6.8369    0.4509    3.2916 O.co2     1 <0>        -0.7845
     29 C20        -2.1911   -4.3438   -2.7303 C.3       1 <0>         0.5189
     30 F1         -0.8973   -3.8277   -2.5994 F         1 <0>        -0.1673
     31 F2         -2.1768   -5.7145   -2.4511 F         1 <0>        -0.1706
     32 F3         -2.6448   -4.1389   -4.0377 F         1 <0>        -0.1737
     33 H2          2.8288   -2.3052    0.5531 H         1 <0>         0.0678
     34 H3          1.3582   -2.2332    1.5534 H         1 <0>         0.0616
     35 H4          1.8039   -3.7492    0.7342 H         1 <0>         0.0647
     36 H5          0.9170   -1.1518   -0.5983 H         1 <0>         0.0719
     37 H6          1.1066   -2.4351   -2.7116 H         1 <0>         0.0646
     38 H7          2.6850   -2.3056   -1.8989 H         1 <0>         0.0613
     39 H8          1.7599   -3.8237   -1.8097 H         1 <0>         0.0609
     40 H9         -4.0166   -3.8451    1.7935 H         1 <0>         0.1181
     41 H10        -3.0536   -3.9990    4.0531 H         1 <0>         0.1176
     42 H11        -1.5023   -2.2641    4.8547 H         1 <0>         0.1162
     43 H12        -0.9108   -0.3711    3.3973 H         1 <0>         0.1204
     44 H13        -0.7008    1.7318    0.7426 H         1 <0>         0.0927
     45 H14        -1.1173    1.2928    2.4165 H         1 <0>         0.0532
     46 H15         0.1428    0.3860    1.5460 H         1 <0>         0.0456
     47 H16        -8.2272   -2.5539    1.1471 H         1 <0>         0.2126
     48 H17        -4.9673   -0.3890    1.6349 H         1 <0>         0.0674
@<TRIPOS>BOND
     1    1    2 1
     2    1   33 1
     3    1   34 1
     4    1   35 1
     5    2    3 1
     6    2    4 1
     7    2   36 1
     8    3   37 1
     9    3   38 1
    10    3   39 1
    11    4    5 1
    12    5    6 2
    13    5    7 1
    14    7   12 1
    15    7    8 2
    16    8    9 1
    17    8   29 1
    18    9   10 2
    19   10   24 1
    20   10   11 1
    21   11   12 1
    22   11   22 1
    23   12   13 1
    24   12   14 1
    25   14   19 ar
    26   14   15 ar
    27   15   16 ar
    28   15   40 1
    29   16   17 ar
    30   16   41 1
    31   17   18 ar
    32   17   42 1
    33   18   19 ar
    34   18   43 1
    35   19   20 1
    36   20   21 1
    37   21   44 1
    38   21   45 1
    39   21   46 1
    40   22   23 2
    41   22   25 1
    42   23   24 1
    43   23   47 1
    44   25   26 2
    45   25   48 1
    46   26   27 1
    47   26   28 1
    48   29   30 1
    49   29   31 1
    50   29   32 1
@<TRIPOS>MOLECULE
ZINC13213073
   53    56     0     0     0
SMALL
USER_CHARGES

@<TRIPOS>ATOM
      1 C1         -1.6690   -1.4211    5.3011 C.3       1 <0>         0.0270
      2 O1         -1.3348   -2.2974    4.2230 O.3       1 <0>        -0.3193
      3 C2         -2.2205   -2.3791    3.1982 C.ar      1 <0>         0.1752
      4 C3         -3.3889   -1.6224    3.2299 C.ar      1 <0>        -0.2570
      5 C4         -4.2873   -1.6964    2.2047 C.ar      1 <0>         0.0094
      6 C5         -4.0381   -2.5352    1.1129 C.ar      1 <0>        -0.2016
      7 C6         -2.8606   -3.2998    1.0769 C.ar      1 <0>         0.2056
      8 C7         -1.9554   -3.2120    2.1207 C.ar      1 <0>        -0.2623
      9 O2         -2.6095   -4.1162    0.0231 O.3       1 <0>        -0.2745
     10 C8         -1.3915   -4.8628    0.0567 C.3       1 <0>         0.0219
     11 C9         -5.0070   -2.6164    0.0062 C.2       1 <0>         0.5098
     12 O3         -4.7544   -3.2903   -0.9758 O.2       1 <0>        -0.4597
     13 C10        -6.2760   -1.8855    0.0873 C.2       1 <0>        -0.5043
     14 C11        -7.5134   -2.4248    0.1837 C.2       1 <0>         0.2718
     15 C12        -8.5132   -1.3392    0.2405 C.2       1 <0>         0.5003
     16 O4         -9.7143   -1.5014    0.3297 O.2       1 <0>        -0.4965
     17 N1         -7.8981   -0.1442    0.1798 N.am      1 <0>        -0.5520
     18 C13        -6.4533   -0.3850    0.0859 C.3       1 <0>         0.2591
     19 H1         -5.9414    0.0538    0.9423 H         1 <0>         0.0752
     20 C14        -5.9160    0.1992   -1.1952 C.ar      1 <0>        -0.0552
     21 C15        -6.6971    0.1989   -2.3357 C.ar      1 <0>        -0.0748
     22 C16        -6.2049    0.7346   -3.5109 C.ar      1 <0>        -0.1059
     23 C17        -4.9301    1.2711   -3.5457 C.ar      1 <0>        -0.0418
     24 C18        -4.1488    1.2711   -2.4038 C.ar      1 <0>        -0.1114
     25 C19        -4.6443    0.7402   -1.2278 C.ar      1 <0>        -0.1055
     26 Cl1        -4.3109    1.9435   -5.0215 Cl        1 <0>        -0.0929
     27 C20        -8.5238    1.1056    0.2075 C.ar      1 <0>         0.1630
     28 C21        -7.7620    2.2664    0.1303 C.ar      1 <0>        -0.1649
     29 C22        -8.3753    3.5048    0.1572 C.ar      1 <0>        -0.1165
     30 C23        -9.7481    3.5984    0.2604 C.ar      1 <0>        -0.1179
     31 C24       -10.5234    2.4386    0.3382 C.ar      1 <0>        -0.1109
     32 C25        -9.9040    1.1876    0.3061 C.ar      1 <0>        -0.1206
     33 C26       -11.9916    2.5353    0.4491 C.2       1 <0>         0.5221
     34 O5        -12.5320    3.6320    0.4731 O.co2     1 <0>        -0.6975
     35 O6        -12.6679    1.5187    0.5170 O.co2     1 <0>        -0.6805
     36 O7         -7.7908   -3.7488    0.2213 O.3       1 <0>        -0.6525
     37 H2         -0.8786   -1.4499    6.0511 H         1 <0>         0.0956
     38 H3         -1.7744   -0.4041    4.9233 H         1 <0>         0.0577
     39 H4         -2.6088   -1.7407    5.7512 H         1 <0>         0.0581
     40 H5         -3.5857   -0.9735    4.0705 H         1 <0>         0.1300
     41 H6         -5.1917   -1.1070    2.2366 H         1 <0>         0.1446
     42 H7         -1.0460   -3.7941    2.0982 H         1 <0>         0.1343
     43 H8         -1.3145   -5.4732   -0.8431 H         1 <0>         0.0983
     44 H9         -0.5459   -4.1766    0.1037 H         1 <0>         0.0524
     45 H10        -1.3850   -5.5081    0.9352 H         1 <0>         0.0528
     46 H11        -7.6921   -0.2202   -2.3086 H         1 <0>         0.1269
     47 H12        -6.8151    0.7340   -4.4020 H         1 <0>         0.1276
     48 H13        -3.1535    1.6894   -2.4304 H         1 <0>         0.1259
     49 H14        -4.0363    0.7445   -0.3352 H         1 <0>         0.1277
     50 H15        -6.6871    2.2000    0.0493 H         1 <0>         0.1140
     51 H16        -7.7777    4.4025    0.0976 H         1 <0>         0.1116
     52 H17       -10.2233    4.5680    0.2815 H         1 <0>         0.1205
     53 H18       -10.4977    0.2872    0.3620 H         1 <0>         0.1574
@<TRIPOS>BOND
     1    1    2 1
     2    1   37 1
     3    1   38 1
     4    1   39 1
     5    2    3 1
     6    3    8 ar
     7    3    4 ar
     8    4    5 ar
     9    4   40 1
    10    5    6 ar
    11    5   41 1
    12    6    7 ar
    13    6   11 1
    14    7    8 ar
    15    7    9 1
    16    8   42 1
    17    9   10 1
    18   10   43 1
    19   10   44 1
    20   10   45 1
    21   11   12 2
    22   11   13 1
    23   13   18 1
    24   13   14 2
    25   14   15 1
    26   14   36 1
    27   15   16 2
    28   15   17 am
    29   17   18 1
    30   17   27 1
    31   18   19 1
    32   18   20 1
    33   20   25 ar
    34   20   21 ar
    35   21   22 ar
    36   21   46 1
    37   22   23 ar
    38   22   47 1
    39   23   24 ar
    40   23   26 1
    41   24   25 ar
    42   24   48 1
    43   25   49 1
    44   27   32 ar
    45   27   28 ar
    46   28   29 ar
    47   28   50 1
    48   29   30 ar
    49   29   51 1
    50   30   31 ar
    51   30   52 1
    52   31   32 ar
    53   31   33 1
    54   32   53 1
    55   33   34 2
    56   33   35 1
@<TRIPOS>MOLECULE
ZINC13213732
   55    59     0     0     0
SMALL
USER_CHARGES

@<TRIPOS>ATOM
      1 C1          0.3623    1.8724   -0.0509 C.3       1 <0>        -0.1514
      2 C2          0.3221    0.3447    0.0212 C.3       1 <0>         0.0577
      3 O1          0.8027   -0.2030   -1.2080 O.3       1 <0>        -0.3015
      4 C3          0.7681   -1.5555   -1.3362 C.ar      1 <0>         0.1333
      5 C4          0.1925   -2.3333   -0.3417 C.ar      1 <0>        -0.2117
      6 C5          0.1583   -3.7077   -0.4745 C.ar      1 <0>        -0.0918
      7 C6          0.6970   -4.3087   -1.5974 C.ar      1 <0>        -0.1525
      8 C7          1.2715   -3.5360   -2.5894 C.ar      1 <0>        -0.0608
      9 C8          1.3031   -2.1604   -2.4640 C.ar      1 <0>        -0.0956
     10 C9          1.9239   -1.3183   -3.5487 C.3       1 <0>         0.2718
     11 H1          2.3765   -0.4257   -3.1169 H         1 <0>         0.0813
     12 C10         0.8779   -0.9297   -4.5674 C.2       1 <0>        -0.4997
     13 C11         1.2761   -1.4481   -5.7530 C.2       1 <0>         0.2645
     14 C12         2.5511   -2.1696   -5.5636 C.2       1 <0>         0.5000
     15 O2          3.1642   -2.7440   -6.4416 O.2       1 <0>        -0.4987
     16 N1          2.9349   -2.0958   -4.2749 N.am      1 <0>        -0.5517
     17 C13         4.0903   -2.6592   -3.7256 C.ar      1 <0>         0.1646
     18 C14         4.3605   -2.5085   -2.3699 C.ar      1 <0>        -0.1612
     19 C15         5.5015   -3.0634   -1.8214 C.ar      1 <0>        -0.1173
     20 C16         6.3806   -3.7715   -2.6151 C.ar      1 <0>        -0.1183
     21 C17         6.1188   -3.9296   -3.9784 C.ar      1 <0>        -0.1119
     22 C18         4.9637   -3.3730   -4.5313 C.ar      1 <0>        -0.1209
     23 C19         7.0571   -4.6858   -4.8299 C.2       1 <0>         0.5223
     24 O3          8.0662   -5.1755   -4.3425 O.co2     1 <0>        -0.6982
     25 O4          6.8258   -4.8227   -6.0229 O.co2     1 <0>        -0.6808
     26 O5          0.6115   -1.3252   -6.9251 O.3       1 <0>        -0.6600
     27 C20        -0.3343   -0.1435   -4.3198 C.2       1 <0>         0.5287
     28 O6         -0.2556    1.0592   -4.1504 O.2       1 <0>        -0.4786
     29 C21        -1.6504   -0.8105   -4.2758 C.ar      1 <0>        -0.1202
     30 C22        -1.7338   -2.2030   -4.3680 C.ar      1 <0>        -0.0298
     31 C23        -2.9627   -2.8234   -4.3267 C.ar      1 <0>        -0.1147
     32 C24        -4.1222   -2.0701   -4.1941 C.ar      1 <0>         0.0423
     33 C25        -4.0458   -0.6791   -4.1017 C.ar      1 <0>         0.0038
     34 C26        -2.8163   -0.0518   -4.1361 C.ar      1 <0>        -0.0539
     35 O7         -5.3113   -0.1810   -3.9803 O.3       1 <0>        -0.3126
     36 C27        -6.1841   -1.2424   -4.4098 C.3       1 <0>         0.2133
     37 O8         -5.4334   -2.4384   -4.1298 O.3       1 <0>        -0.3121
     38 H2          1.3972    2.2053   -0.1309 H         1 <0>         0.0645
     39 H3         -0.1964    2.2098   -0.9238 H         1 <0>         0.0714
     40 H4         -0.0851    2.2906    0.8508 H         1 <0>         0.0694
     41 H5          0.9524    0.0030    0.8422 H         1 <0>         0.0553
     42 H6         -0.7034    0.0157    0.1893 H         1 <0>         0.0552
     43 H7         -0.2280   -1.8644    0.5357 H         1 <0>         0.1197
     44 H8         -0.2893   -4.3136    0.2995 H         1 <0>         0.1152
     45 H9          0.6692   -5.3835   -1.6993 H         1 <0>         0.1183
     46 H10         1.6919   -4.0078   -3.4653 H         1 <0>         0.1255
     47 H11         3.6765   -1.9554   -1.7433 H         1 <0>         0.1131
     48 H12         5.7058   -2.9420   -0.7679 H         1 <0>         0.1105
     49 H13         7.2711   -4.2031   -2.1825 H         1 <0>         0.1200
     50 H14         4.7536   -3.4947   -5.5836 H         1 <0>         0.1573
     51 H15        -0.8347   -2.7921   -4.4719 H         1 <0>         0.1492
     52 H16        -3.0250   -3.8993   -4.3980 H         1 <0>         0.1352
     53 H17        -2.7556    1.0238   -4.0601 H         1 <0>         0.1393
     54 H18        -7.1120   -1.2301   -3.8380 H         1 <0>         0.1246
     55 H19        -6.3899   -1.1606   -5.4771 H         1 <0>         0.0788
@<TRIPOS>BOND
     1    1    2 1
     2    1   38 1
     3    1   39 1
     4    1   40 1
     5    2    3 1
     6    2   41 1
     7    2   42 1
     8    3    4 1
     9    4    9 ar
    10    4    5 ar
    11    5    6 ar
    12    5   43 1
    13    6    7 ar
    14    6   44 1
    15    7    8 ar
    16    7   45 1
    17    8    9 ar
    18    8   46 1
    19    9   10 1
    20   10   11 1
    21   10   16 1
    22   10   12 1
    23   12   13 2
    24   12   27 1
    25   13   14 1
    26   13   26 1
    27   14   15 2
    28   14   16 am
    29   16   17 1
    30   17   22 ar
    31   17   18 ar
    32   18   19 ar
    33   18   47 1
    34   19   20 ar
    35   19   48 1
    36   20   21 ar
    37   20   49 1
    38   21   22 ar
    39   21   23 1
    40   22   50 1
    41   23   24 2
    42   23   25 1
    43   27   28 2
    44   27   29 1
    45   29   34 ar
    46   29   30 ar
    47   30   31 ar
    48   30   51 1
    49   31   32 ar
    50   31   52 1
    51   32   37 1
    52   32   33 ar
    53   33   34 ar
    54   33   35 1
    55   34   53 1
    56   35   36 1
    57   36   37 1
    58   36   54 1
    59   36   55 1
@<TRIPOS>MOLECULE
ZINC20130126
   53    56     0     0     0
SMALL
USER_CHARGES

@<TRIPOS>ATOM
      1 C1          0.7901   -4.4008    3.9046 C.3       1 <0>         0.0309
      2 O1          0.5406   -3.8790    2.5979 O.3       1 <0>        -0.2950
      3 C2          0.8903   -2.5851    2.3731 C.ar      1 <0>         0.1511
      4 C3          1.4672   -1.8348    3.3878 C.ar      1 <0>        -0.2195
      5 C4          1.8222   -0.5202    3.1566 C.ar      1 <0>        -0.0929
      6 C5          1.6031    0.0484    1.9153 C.ar      1 <0>        -0.1656
      7 C6          1.0280   -0.6968    0.9028 C.ar      1 <0>        -0.0537
      8 C7          0.6764   -2.0140    1.1273 C.ar      1 <0>        -0.0872
      9 C8          0.0553   -2.8277    0.0213 C.3       1 <0>         0.2667
     10 H1          0.1618   -2.3069   -0.9303 H         1 <0>         0.0745
     11 C9         -1.4065   -3.0724    0.3167 C.2       1 <0>        -0.4797
     12 C10        -2.3969   -2.1135    0.4723 C.2       1 <0>         0.3714
     13 C11        -3.6979   -2.4991    0.8674 C.2       1 <0>        -0.1300
     14 C12        -4.6645   -1.5632    1.0192 C.2       1 <0>        -0.1042
     15 C13        -6.0177   -1.9642    1.4302 C.ar      1 <0>        -0.0398
     16 C14        -6.3095   -3.3117    1.6712 C.ar      1 <0>        -0.1122
     17 C15        -7.5809   -3.6793    2.0568 C.ar      1 <0>        -0.1191
     18 C16        -8.5678   -2.7199    2.2057 C.ar      1 <0>        -0.1350
     19 C17        -8.2874   -1.3850    1.9693 C.ar      1 <0>        -0.1256
     20 C18        -7.0198   -1.0000    1.5883 C.ar      1 <0>        -0.1159
     21 O2         -2.1176   -0.8103    0.2459 O.3       1 <0>        -0.6441
     22 C19        -1.5603   -4.4616    0.4011 C.2       1 <0>         0.3824
     23 O3         -2.6019   -5.0524    0.6272 O.2       1 <0>        -0.5174
     24 C20        -0.2351   -5.0916    0.1665 C.2       1 <0>         0.4815
     25 O4         -0.0224   -6.2872    0.1715 O.2       1 <0>        -0.5020
     26 N1          0.6944   -4.1449   -0.0529 N.am      1 <0>        -0.5317
     27 C21         2.0487   -4.3779   -0.3097 C.ar      1 <0>         0.1657
     28 C22         2.9117   -3.3071   -0.5149 C.ar      1 <0>        -0.1642
     29 C23         4.2516   -3.5315   -0.7692 C.ar      1 <0>        -0.1178
     30 C24         4.7429   -4.8199   -0.8213 C.ar      1 <0>        -0.1196
     31 C25         3.8848   -5.9034   -0.6161 C.ar      1 <0>        -0.1146
     32 C26         2.5323   -5.6762   -0.3540 C.ar      1 <0>        -0.1203
     33 C27         4.4070   -7.2824   -0.6712 C.2       1 <0>         0.5230
     34 O5          5.5928   -7.4786   -0.8968 O.co2     1 <0>        -0.6983
     35 O6          3.6539   -8.2290   -0.4913 O.co2     1 <0>        -0.6826
     36 H2          0.2384   -3.8162    4.6408 H         1 <0>         0.0474
     37 H3          0.4653   -5.4403    3.9488 H         1 <0>         0.0946
     38 H4          1.8569   -4.3439    4.1210 H         1 <0>         0.0495
     39 H5          1.6382   -2.2783    4.3575 H         1 <0>         0.1184
     40 H6          2.2709    0.0643    3.9462 H         1 <0>         0.1122
     41 H7          1.8813    1.0765    1.7365 H         1 <0>         0.1139
     42 H8          0.8576   -0.2504   -0.0657 H         1 <0>         0.1252
     43 H9         -3.9210   -3.5402    1.0483 H         1 <0>         0.1399
     44 H10        -4.4414   -0.5221    0.8383 H         1 <0>         0.1285
     45 H11        -5.5408   -4.0614    1.5551 H         1 <0>         0.1344
     46 H12        -7.8079   -4.7187    2.2428 H         1 <0>         0.1197
     47 H13        -9.5619   -3.0146    2.5077 H         1 <0>         0.1144
     48 H14        -9.0630   -0.6428    2.0874 H         1 <0>         0.1161
     49 H15        -6.8016    0.0423    1.4082 H         1 <0>         0.1217
     50 H16         2.5334   -2.2962   -0.4758 H         1 <0>         0.1168
     51 H17         4.9165   -2.6953   -0.9281 H         1 <0>         0.1114
     52 H18         5.7904   -4.9909   -1.0210 H         1 <0>         0.1195
     53 H19         1.8645   -6.5091   -0.1905 H         1 <0>         0.1571
@<TRIPOS>BOND
     1    1    2 1
     2    1   36 1
     3    1   37 1
     4    1   38 1
     5    2    3 1
     6    3    8 ar
     7    3    4 ar
     8    4    5 ar
     9    4   39 1
    10    5    6 ar
    11    5   40 1
    12    6    7 ar
    13    6   41 1
    14    7    8 ar
    15    7   42 1
    16    8    9 1
    17    9   10 1
    18    9   26 1
    19    9   11 1
    20   11   12 2
    21   11   22 1
    22   12   13 1
    23   12   21 1
    24   13   14 2
    25   13   43 1
    26   14   15 1
    27   14   44 1
    28   15   20 ar
    29   15   16 ar
    30   16   17 ar
    31   16   45 1
    32   17   18 ar
    33   17   46 1
    34   18   19 ar
    35   18   47 1
    36   19   20 ar
    37   19   48 1
    38   20   49 1
    39   22   23 2
    40   22   24 1
    41   24   25 2
    42   24   26 am
    43   26   27 1
    44   27   32 ar
    45   27   28 ar
    46   28   29 ar
    47   28   50 1
    48   29   30 ar
    49   29   51 1
    50   30   31 ar
    51   30   52 1
    52   31   32 ar
    53   31   33 1
    54   32   53 1
    55   33   34 2
    56   33   35 1
@<TRIPOS>MOLECULE
ZINC09330938
   46    49     0     0     0
SMALL
USER_CHARGES
(5S)-1-(5-allylsulfanyl-1,3,4-thiadiazol-2-yl)-4-(furan-2-carbonyl)-3-hydroxy-5-(p-tolyl)-5H-pyrrol-2-one
@<TRIPOS>ATOM
      1 C1          2.2954   -3.7018    4.6843 C.3       1 <0>        -0.1108
      2 C2          2.0646   -2.8506    3.4623 C.ar      1 <0>        -0.0927
      3 C3          1.9621   -3.4423    2.2172 C.ar      1 <0>        -0.1193
      4 C4          1.7499   -2.6615    1.0963 C.ar      1 <0>        -0.0958
      5 C5          1.6407   -1.2891    1.2206 C.ar      1 <0>        -0.0782
      6 C6          1.7488   -0.6970    2.4650 C.ar      1 <0>        -0.0887
      7 C7          1.9558   -1.4782    3.5865 C.ar      1 <0>        -0.1199
      8 C8          1.4098   -0.4379   -0.0014 C.3       1 <0>         0.2694
      9 H1          1.6636   -1.0356   -0.8893 H         1 <0>         0.0919
     10 C9         -0.0193    0.0517   -0.0313 C.2       1 <0>        -0.4764
     11 C10         0.0309    1.4041    0.0041 C.2       1 <0>         0.2736
     12 C11         1.4403    1.8365    0.0566 C.2       1 <0>         0.5136
     13 O1          1.8139    2.9926    0.0960 O.2       1 <0>        -0.4853
     14 N1          2.2515    0.7632    0.0536 N.am      1 <0>        -0.4969
     15 C12         3.6407    0.7875    0.0948 C.2       1 <0>         0.3267
     16 N2          4.5093   -0.2112    0.0945 N.2       1 <0>        -0.3104
     17 N3          5.7544   -0.0139    0.1360 N.2       1 <0>        -0.2491
     18 C13         6.2692    1.2067    0.1824 C.2       1 <0>        -0.0302
     19 S1          4.7659    2.1790    0.1556 S.3       1 <0>         0.0828
     20 S2          7.9522    1.7246    0.2458 S.3       1 <0>         0.0365
     21 C14         8.8899    0.1718    0.2333 C.3       1 <0>        -0.0852
     22 C15        10.3651    0.4754    0.2849 C.2       1 <0>        -0.1516
     23 C16        11.0728    0.1113    1.3254 C.2       1 <0>        -0.1624
     24 O2         -1.0423    2.2292   -0.0120 O.3       1 <0>        -0.6325
     25 C17        -1.2276   -0.7779   -0.0878 C.2       1 <0>         0.5471
     26 O3         -2.0043   -0.7879    0.8511 O.2       1 <0>        -0.4458
     27 C18        -1.5009   -1.5952   -1.2739 C.2       1 <0>        -0.0647
     28 C19        -2.6346   -2.3457   -1.4990 C.2       1 <0>        -0.1522
     29 C20        -2.4686   -2.9541   -2.7516 C.2       1 <0>        -0.2263
     30 C21        -1.2631   -2.5673   -3.2271 C.2       1 <0>        -0.0277
     31 O4         -0.6846   -1.7510   -2.3368 O.3       1 <0>        -0.1455
     32 H2          2.3541   -4.7597    4.3885 H         1 <0>         0.0618
     33 H3          1.4627   -3.5640    5.3897 H         1 <0>         0.0662
     34 H4          3.2378   -3.4030    5.1666 H         1 <0>         0.0643
     35 H5          2.0475   -4.5145    2.1201 H         1 <0>         0.1182
     36 H6          1.6699   -3.1237    0.1235 H         1 <0>         0.1199
     37 H7          1.6679    0.3757    2.5615 H         1 <0>         0.1105
     38 H8          2.0362   -1.0159    4.5592 H         1 <0>         0.1164
     39 H9          8.6092   -0.4331    1.1081 H         1 <0>         0.0998
     40 H10         8.6624   -0.3865   -0.6868 H         1 <0>         0.1054
     41 H11        10.8476    1.0028   -0.5512 H         1 <0>         0.1235
     42 H12        12.1496    0.3329    1.3630 H         1 <0>         0.1092
     43 H13        10.5903   -0.4161    2.1615 H         1 <0>         0.1041
     44 H14        -3.4853   -2.4439   -0.8409 H         1 <0>         0.1544
     45 H15        -3.1701   -3.6124   -3.2424 H         1 <0>         0.1496
     46 H16        -0.8358   -2.8681   -4.1723 H         1 <0>         0.2028
@<TRIPOS>BOND
     1    1    2 1
     2    1   32 1
     3    1   33 1
     4    1   34 1
     5    2    7 ar
     6    2    3 ar
     7    3    4 ar
     8    3   35 1
     9    4    5 ar
    10    4   36 1
    11    5    6 ar
    12    5    8 1
    13    6    7 ar
    14    6   37 1
    15    7   38 1
    16    8    9 1
    17    8   14 1
    18    8   10 1
    19   10   11 2
    20   10   25 1
    21   11   12 1
    22   11   24 1
    23   12   13 2
    24   12   14 am
    25   14   15 1
    26   15   19 1
    27   15   16 2
    28   16   17 1
    29   17   18 2
    30   18   19 1
    31   18   20 1
    32   20   21 1
    33   21   22 1
    34   21   39 1
    35   21   40 1
    36   22   23 2
    37   22   41 1
    38   23   42 1
    39   23   43 1
    40   25   26 2
    41   25   27 1
    42   27   31 1
    43   27   28 2
    44   28   29 1
    45   28   44 1
    46   29   30 2
    47   29   45 1
    48   30   31 1
    49   30   46 1
@<TRIPOS>MOLECULE
ZINC33697735
   55    58     0     0     0
SMALL
USER_CHARGES
methyl 4-[(2S,3E)-3-[(2,5-dimethylphenyl)-hydroxy-methylene]-1-(2-furylmethyl)-4,5-dioxo-pyrrolidin-2-yl]benzoate
@<TRIPOS>ATOM
      1 C1          7.9168    7.0387   -5.5156 C.3       1 <0>        -0.1084
      2 C2          6.7715    6.0855   -5.2899 C.ar      1 <0>        -0.1020
      3 C3          6.0143    5.6495   -6.3638 C.ar      1 <0>        -0.1210
      4 C4          4.9609    4.7738   -6.1668 C.ar      1 <0>        -0.1303
      5 C5          4.6608    4.3250   -4.8979 C.ar      1 <0>        -0.0625
      6 C6          5.4170    4.7656   -3.8074 C.ar      1 <0>        -0.0619
      7 C7          6.4804    5.6503   -4.0147 C.ar      1 <0>        -0.0637
      8 C8          5.0991    4.2956   -2.4475 C.2       1 <0>         0.4024
      9 C9          4.7437    5.2019   -1.4700 C.2       1 <0>        -0.4976
     10 C10         4.5050    4.9117   -0.0062 C.3       1 <0>         0.2626
     11 H1          5.3976    4.4928    0.4815 H         1 <0>         0.0751
     12 N1          4.1529    6.1878    0.6229 N.am      1 <0>        -0.5985
     13 C11         4.1660    7.1541   -0.3104 C.2       1 <0>         0.4803
     14 O1          3.9162    8.3241   -0.1041 O.2       1 <0>        -0.5251
     15 C12         4.5308    6.5804   -1.6344 C.2       1 <0>         0.3728
     16 O2          4.6284    7.1989   -2.6786 O.3       1 <0>        -0.4893
     17 C13         3.8372    6.3787    2.0407 C.3       1 <0>         0.2080
     18 C14         5.1017    6.6885    2.7997 C.2       1 <0>        -0.0298
     19 C15         5.6076    7.9156    3.0180 C.2       1 <0>        -0.1898
     20 C16         6.7946    7.7422    3.7663 C.2       1 <0>        -0.2171
     21 C17         6.9431    6.4195    3.9604 C.2       1 <0>        -0.0411
     22 O3          5.9117    5.7865    3.3777 O.3       1 <0>        -0.1710
     23 C18         3.3714    3.9306    0.1471 C.ar      1 <0>        -0.0219
     24 C19         3.6436    2.5981    0.4019 C.ar      1 <0>        -0.0907
     25 C20         2.6107    1.6947    0.5434 C.ar      1 <0>        -0.0544
     26 C21         1.2882    2.1278    0.4294 C.ar      1 <0>        -0.1451
     27 C22         1.0209    3.4729    0.1669 C.ar      1 <0>        -0.0667
     28 C23         2.0632    4.3665    0.0329 C.ar      1 <0>        -0.1224
     29 C24         0.1770    1.1661    0.5798 C.2       1 <0>         0.5132
     30 O4          0.4128   -0.0043    0.8031 O.2       1 <0>        -0.5144
     31 O5         -1.0977    1.5862    0.4637 O.3       1 <0>        -0.3562
     32 C25        -2.1382    0.5852    0.6172 C.3       1 <0>         0.0337
     33 O6          5.1555    2.9782   -2.1582 O.2       1 <0>        -0.6250
     34 C26         3.5173    3.3665   -4.6864 C.3       1 <0>        -0.1185
     35 H2          7.9946    7.2709   -6.5880 H         1 <0>         0.0584
     36 H3          8.8531    6.5747   -5.1720 H         1 <0>         0.0623
     37 H4          7.7386    7.9661   -4.9516 H         1 <0>         0.0666
     38 H5          6.2471    5.9943   -7.3605 H         1 <0>         0.1122
     39 H6          4.3748    4.4382   -7.0095 H         1 <0>         0.1143
     40 H7          7.0715    5.9918   -3.1779 H         1 <0>         0.1140
     41 H8          3.1302    7.2143    2.1496 H         1 <0>         0.1136
     42 H9          3.3841    5.4603    2.4424 H         1 <0>         0.0970
     43 H10         5.1873    8.8534    2.6860 H         1 <0>         0.1483
     44 H11         7.4551    8.5221    4.1153 H         1 <0>         0.1455
     45 H12         7.7517    5.9469    4.4982 H         1 <0>         0.2001
     46 H13         4.6670    2.2645    0.4899 H         1 <0>         0.1329
     47 H14         2.8245    0.6548    0.7416 H         1 <0>         0.1310
     48 H15         0.0004    3.8136    0.0728 H         1 <0>         0.1304
     49 H16         1.8578    5.4080   -0.1660 H         1 <0>         0.1221
     50 H17        -3.1236    1.0597    0.4998 H         1 <0>         0.1011
     51 H18        -2.0663    0.1319    1.6169 H         1 <0>         0.0620
     52 H19        -2.0129   -0.1943   -0.1488 H         1 <0>         0.0627
     53 H20         3.4341    3.1254   -3.6164 H         1 <0>         0.0833
     54 H21         3.7016    2.4442   -5.2569 H         1 <0>         0.0613
     55 H22         2.5815    3.8303   -5.0316 H         1 <0>         0.0572
@<TRIPOS>BOND
     1    1    2 1
     2    1   35 1
     3    1   36 1
     4    1   37 1
     5    2    7 ar
     6    2    3 ar
     7    3    4 ar
     8    3   38 1
     9    4    5 ar
    10    4   39 1
    11    5    6 ar
    12    5   34 1
    13    6    7 ar
    14    6    8 1
    15    7   40 1
    16    8    9 1
    17    8   33 2
    18    9   15 2
    19    9   10 1
    20   10   11 1
    21   10   12 1
    22   10   23 1
    23   12   13 am
    24   12   17 1
    25   13   14 2
    26   13   15 1
    27   15   16 1
    28   17   18 1
    29   17   41 1
    30   17   42 1
    31   18   22 1
    32   18   19 2
    33   19   20 1
    34   19   43 1
    35   20   21 2
    36   20   44 1
    37   21   22 1
    38   21   45 1
    39   23   28 ar
    40   23   24 ar
    41   24   25 ar
    42   24   46 1
    43   25   26 ar
    44   25   47 1
    45   26   27 ar
    46   26   29 1
    47   27   28 ar
    48   27   48 1
    49   28   49 1
    50   29   30 2
    51   29   31 1
    52   31   32 1
    53   32   50 1
    54   32   51 1
    55   32   52 1
    56   34   53 1
    57   34   54 1
    58   34   55 1
@<TRIPOS>MOLECULE
ZINC37866072
   57    60     0     0     0
SMALL
USER_CHARGES

@<TRIPOS>ATOM
      1 C1         -6.2990    5.4964   -1.7885 C.3       1 <0>        -0.1460
      2 C2         -6.8208    5.1347   -0.3964 C.3       1 <0>        -0.0813
      3 C3         -7.1679    3.6688   -0.3553 C.ar      1 <0>        -0.0870
      4 C4         -8.4418    3.2516   -0.6946 C.ar      1 <0>        -0.1098
      5 C5         -8.7629    1.9088   -0.6579 C.ar      1 <0>        -0.0981
      6 C6         -7.8049    0.9774   -0.2803 C.ar      1 <0>         0.1531
      7 C7         -6.5265    1.3994    0.0592 C.ar      1 <0>        -0.0989
      8 C8         -6.2101    2.7431    0.0160 C.ar      1 <0>        -0.1103
      9 N1         -8.1277   -0.3855   -0.2417 N.am      1 <0>        -0.5517
     10 C9         -8.0080   -1.1349   -1.3592 C.2       1 <0>         0.5545
     11 O1         -7.6223   -0.6455   -2.4049 O.2       1 <0>        -0.5007
     12 C10        -8.3581   -2.5623   -1.2726 C.2       1 <0>        -0.2347
     13 C11        -8.2599   -3.3999   -2.3831 C.2       1 <0>         0.0792
     14 C12        -7.6801   -2.9267   -3.5692 C.2       1 <0>         0.0107
     15 C13        -8.2841   -2.8823   -4.8225 C.2       1 <0>        -0.1478
     16 C14        -7.3499   -2.3425   -5.7030 C.2       1 <0>        -0.2047
     17 C15        -6.2186   -2.0707   -5.0003 C.2       1 <0>         0.0105
     18 N2         -6.4063   -2.4131   -3.7095 N.pl3     1 <0>        -0.3941
     19 C16        -5.4210   -2.2674   -2.6352 C.3       1 <0>         0.1086
     20 C17        -4.7446   -3.6153   -2.3773 C.3       1 <0>         0.0470
     21 O2         -3.8452   -3.4935   -1.2736 O.3       1 <0>        -0.3101
     22 C18        -3.2397   -4.6313   -0.8426 C.ar      1 <0>         0.1288
     23 C19        -3.4586   -5.8294   -1.5070 C.ar      1 <0>        -0.2014
     24 C20        -2.8416   -6.9845   -1.0672 C.ar      1 <0>        -0.0794
     25 C21        -2.0069   -6.9474    0.0344 C.ar      1 <0>        -0.1277
     26 C22        -1.7874   -5.7547    0.6986 C.ar      1 <0>        -0.0810
     27 C23        -2.3972   -4.5956    0.2590 C.ar      1 <0>        -0.1455
     28 C24        -1.3355   -8.2091    0.5123 C.3       1 <0>        -0.1080
     29 C25        -8.8002   -3.0554   -0.0123 C.2       1 <0>         0.4911
     30 O3         -9.1361   -4.3548    0.1343 O.3       1 <0>        -0.6374
     31 N3         -8.8770   -2.2239    1.0127 N.2       1 <0>        -0.6628
     32 C26        -8.5487   -0.9386    0.9074 C.2       1 <0>         0.6673
     33 O4         -8.6392   -0.2314    1.8955 O.2       1 <0>        -0.5617
     34 H1         -6.0479    6.5567   -1.8182 H         1 <0>         0.0546
     35 H2         -5.4092    4.9061   -2.0077 H         1 <0>         0.0551
     36 H3         -7.0679    5.2841   -2.5313 H         1 <0>         0.0555
     37 H4         -6.0519    5.3470    0.3463 H         1 <0>         0.0700
     38 H5         -7.7105    5.7250   -0.1773 H         1 <0>         0.0701
     39 H6         -9.1866    3.9765   -0.9881 H         1 <0>         0.1228
     40 H7         -9.7583    1.5836   -0.9222 H         1 <0>         0.1196
     41 H8         -5.7793    0.6773    0.3537 H         1 <0>         0.1191
     42 H9         -5.2147    3.0716    0.2764 H         1 <0>         0.1226
     43 H10        -8.6304   -4.4129   -2.3298 H         1 <0>         0.1596
     44 H11        -9.2856   -3.2050   -5.0656 H         1 <0>         0.1395
     45 H12        -7.4981   -2.1706   -6.7589 H         1 <0>         0.1354
     46 H13        -5.3148   -1.6440   -5.4096 H         1 <0>         0.1588
     47 H14        -4.6698   -1.5341   -2.9282 H         1 <0>         0.1027
     48 H15        -5.9211   -1.9321   -1.7265 H         1 <0>         0.0958
     49 H16        -5.5026   -4.3641   -2.1474 H         1 <0>         0.0724
     50 H17        -4.1908   -3.9197   -3.2654 H         1 <0>         0.0701
     51 H18        -4.1112   -5.8590   -2.3670 H         1 <0>         0.1271
     52 H19        -3.0118   -7.9174   -1.5840 H         1 <0>         0.1241
     53 H20        -1.1352   -5.7283    1.5590 H         1 <0>         0.1286
     54 H21        -2.2220   -3.6634    0.7754 H         1 <0>         0.1312
     55 H22        -0.3724   -8.3193    0.0139 H         1 <0>         0.0657
     56 H23        -1.1825   -8.1534    1.5901 H         1 <0>         0.0646
     57 H24        -1.9659   -9.0670    0.2787 H         1 <0>         0.0641
@<TRIPOS>BOND
     1    1    2 1
     2    1   34 1
     3    1   35 1
     4    1   36 1
     5    2    3 1
     6    2   37 1
     7    2   38 1
     8    3    8 ar
     9    3    4 ar
    10    4    5 ar
    11    4   39 1
    12    5    6 ar
    13    5   40 1
    14    6    7 ar
    15    6    9 1
    16    7    8 ar
    17    7   41 1
    18    8   42 1
    19    9   32 am
    20    9   10 am
    21   10   11 2
    22   10   12 1
    23   12   13 2
    24   12   29 1
    25   13   14 1
    26   13   43 1
    27   14   18 1
    28   14   15 2
    29   15   16 1
    30   15   44 1
    31   16   17 2
    32   16   45 1
    33   17   18 1
    34   17   46 1
    35   18   19 1
    36   19   20 1
    37   19   47 1
    38   19   48 1
    39   20   21 1
    40   20   49 1
    41   20   50 1
    42   21   22 1
    43   22   27 ar
    44   22   23 ar
    45   23   24 ar
    46   23   51 1
    47   24   25 ar
    48   24   52 1
    49   25   26 ar
    50   25   28 1
    51   26   27 ar
    52   26   53 1
    53   27   54 1
    54   28   55 1
    55   28   56 1
    56   28   57 1
    57   29   30 1
    58   29   31 2
    59   31   32 1
    60   32   33 2
@<TRIPOS>MOLECULE
ZINC39849323
   51    54     0     0     0
SMALL
USER_CHARGES

@<TRIPOS>ATOM
      1 C1          0.2370    1.1766   -0.3667 C.3       1 <0>        -0.1489
      2 C2          0.1743   -0.3453   -0.2227 C.3       1 <0>        -0.0185
      3 C3          0.8660   -0.7583    1.0509 C.2       1 <0>         0.0223
      4 N1          0.3804   -0.9128    2.2670 N.2       1 <0>        -0.2513
      5 N2          1.1022   -1.2692    3.2380 N.2       1 <0>        -0.3193
      6 C4          2.3983   -1.5110    3.0942 C.2       1 <0>         0.3310
      7 S1          2.5798   -1.1869    1.3426 S.3       1 <0>         0.0073
      8 N3          3.3426   -1.9071    4.0321 N.am      1 <0>        -0.4990
      9 C5          3.0920   -2.1614    5.4556 C.3       1 <0>         0.2710
     10 H1          2.3694   -2.9693    5.5705 H         1 <0>         0.0879
     11 C6          4.4207   -2.5642    6.0515 C.2       1 <0>        -0.4849
     12 C7          5.3254   -2.5345    5.0443 C.2       1 <0>         0.2720
     13 C8          4.6478   -2.1312    3.7953 C.2       1 <0>         0.5104
     14 O1          5.1900   -2.0164    2.7138 O.2       1 <0>        -0.4847
     15 O2          6.6400   -2.8313    5.1624 O.3       1 <0>        -0.6331
     16 C9          4.6804   -2.9185    7.4498 C.2       1 <0>         0.5085
     17 O3          5.3942   -2.2097    8.1346 O.2       1 <0>        -0.4610
     18 C10         4.0756   -4.1362    8.0278 C.ar      1 <0>        -0.1482
     19 C11         3.3591   -5.0175    7.2139 C.ar      1 <0>        -0.0373
     20 C12         2.7974   -6.1520    7.7584 C.ar      1 <0>        -0.1682
     21 C13         2.9419   -6.4196    9.1116 C.ar      1 <0>         0.1101
     22 C14         3.6517   -5.5482    9.9242 C.ar      1 <0>        -0.1684
     23 C15         4.2228   -4.4138    9.3893 C.ar      1 <0>        -0.0442
     24 F1          2.3889   -7.5332    9.6401 F         1 <0>        -0.1424
     25 C16         2.5808   -0.9108    6.1233 C.ar      1 <0>        -0.1071
     26 C17         3.1727    0.3086    5.8502 C.ar      1 <0>        -0.0521
     27 C18         2.7063    1.4563    6.4613 C.ar      1 <0>        -0.1496
     28 C19         1.6429    1.3849    7.3494 C.ar      1 <0>         0.1252
     29 C20         1.0505    0.1602    7.6214 C.ar      1 <0>        -0.2055
     30 C21         1.5172   -0.9839    7.0037 C.ar      1 <0>        -0.0588
     31 O4          1.1825    2.5125    7.9522 O.3       1 <0>        -0.3192
     32 C22         0.0847    2.3637    8.8548 C.3       1 <0>         0.0546
     33 C23        -0.2909    3.7305    9.4308 C.3       1 <0>        -0.1510
     34 H2          1.2787    1.4959   -0.3989 H         1 <0>         0.0588
     35 H3         -0.2633    1.4754   -1.2878 H         1 <0>         0.0689
     36 H4         -0.2598    1.6428    0.4842 H         1 <0>         0.0626
     37 H5         -0.8674   -0.6646   -0.1905 H         1 <0>         0.0994
     38 H6          0.6711   -0.8115   -1.0736 H         1 <0>         0.0900
     39 H7          3.2453   -4.8097    6.1602 H         1 <0>         0.1427
     40 H8          2.2434   -6.8339    7.1302 H         1 <0>         0.1365
     41 H9          3.7605   -5.7611   10.9774 H         1 <0>         0.1355
     42 H10         4.7794   -3.7384   10.0221 H         1 <0>         0.1408
     43 H11         4.0005    0.3637    5.1587 H         1 <0>         0.1176
     44 H12         3.1693    2.4085    6.2481 H         1 <0>         0.1256
     45 H13         0.2225    0.1020    8.3124 H         1 <0>         0.1244
     46 H14         1.0536   -1.9369    7.2118 H         1 <0>         0.1238
     47 H15        -0.7698    1.9467    8.3219 H         1 <0>         0.0601
     48 H16         0.3695    1.6934    9.6658 H         1 <0>         0.0605
     49 H17         0.5637    4.1474    9.9636 H         1 <0>         0.0650
     50 H18        -0.5756    4.4007    8.6198 H         1 <0>         0.0644
     51 H19        -1.1282    3.6169   10.1193 H         1 <0>         0.0756
@<TRIPOS>BOND
     1    1    2 1
     2    1   34 1
     3    1   35 1
     4    1   36 1
     5    2    3 1
     6    2   37 1
     7    2   38 1
     8    3    7 1
     9    3    4 2
    10    4    5 1
    11    5    6 2
    12    6    7 1
    13    6    8 1
    14    8   13 am
    15    8    9 1
    16    9   10 1
    17    9   11 1
    18    9   25 1
    19   11   12 2
    20   11   16 1
    21   12   13 1
    22   12   15 1
    23   13   14 2
    24   16   17 2
    25   16   18 1
    26   18   23 ar
    27   18   19 ar
    28   19   20 ar
    29   19   39 1
    30   20   21 ar
    31   20   40 1
    32   21   22 ar
    33   21   24 1
    34   22   23 ar
    35   22   41 1
    36   23   42 1
    37   25   30 ar
    38   25   26 ar
    39   26   27 ar
    40   26   43 1
    41   27   28 ar
    42   27   44 1
    43   28   29 ar
    44   28   31 1
    45   29   30 ar
    46   29   45 1
    47   30   46 1
    48   31   32 1
    49   32   33 1
    50   32   47 1
    51   32   48 1
    52   33   49 1
    53   33   50 1
    54   33   51 1
@<TRIPOS>MOLECULE
ZINC39764990
   57    60     0     0     0
SMALL
USER_CHARGES

@<TRIPOS>ATOM
      1 C1         -0.0187    1.5258    0.0104 C.3       1 <0>        -0.1453
      2 C2          0.0021   -0.0041    0.0020 C.3       1 <0>        -0.1083
      3 C3         -1.4333   -0.5336    0.0129 C.3       1 <0>        -0.1051
      4 S1         -1.4087   -2.3475    0.0029 S.3       1 <0>        -0.0124
      5 C4         -3.1124   -2.7969    0.0168 C.2       1 <0>         0.4335
      6 N1         -4.0277   -1.8353    0.0252 N.2       1 <0>        -0.6866
      7 C5         -5.3218   -2.1071   -0.0565 C.2       1 <0>         0.5171
      8 O1         -6.1287   -1.1993    0.0030 O.2       1 <0>        -0.4890
      9 C6         -5.8062   -3.5129   -0.2212 C.3       1 <0>        -0.2138
     10 H1         -6.1872   -3.6244   -1.2363 H         1 <0>         0.1167
     11 C7         -6.9352   -3.8450    0.7490 C.3       1 <0>         0.0674
     12 H2         -6.6287   -3.6027    1.7666 H         1 <0>         0.0594
     13 C8         -7.2301   -5.3272    0.6434 C.2       1 <0>        -0.3870
     14 C9         -6.1890   -6.2176    0.3662 C.2       1 <0>         0.2968
     15 C10        -6.4577   -7.7021    0.2917 C.3       1 <0>        -0.0822
     16 C11        -7.6493   -8.0481    1.1880 C.3       1 <0>        -0.1117
     17 C12        -8.8551   -7.2146    0.7425 C.3       1 <0>        -0.1341
     18 C13        -8.5011   -5.7543    0.8228 C.2       1 <0>         0.3402
     19 O2         -9.4685   -4.8548    1.0783 O.3       1 <0>        -0.5714
     20 N2         -4.9634   -5.7841    0.1372 N.2       1 <0>        -0.6046
     21 C14        -4.6867   -4.4985   -0.0306 C.2       1 <0>         0.4870
     22 N3         -3.4355   -4.0898    0.0129 N.2       1 <0>        -0.6164
     23 C15        -8.1657   -3.0539    0.3869 C.ar      1 <0>         0.0344
     24 C16        -8.7468   -3.2135   -0.8574 C.ar      1 <0>        -0.1047
     25 C17        -9.8757   -2.4901   -1.1943 C.ar      1 <0>        -0.1638
     26 C18       -10.4275   -1.6032   -0.2839 C.ar      1 <0>         0.0765
     27 C19        -9.8429   -1.4429    0.9687 C.ar      1 <0>         0.1038
     28 C20        -8.7143   -2.1746    1.3018 C.ar      1 <0>        -0.1408
     29 O3        -10.3808   -0.5737    1.8656 O.3       1 <0>        -0.3143
     30 C21        -9.7276   -0.4608    3.1316 C.3       1 <0>         0.0306
     31 O4        -11.5378   -0.8905   -0.6139 O.3       1 <0>        -0.3128
     32 C22       -12.0834   -1.1060   -1.9170 C.3       1 <0>         0.0560
     33 C23       -13.3191   -0.2236   -2.1047 C.3       1 <0>        -0.1484
     34 H3          1.0039    1.9031    0.0027 H         1 <0>         0.0581
     35 H4         -0.5459    1.8868   -0.8726 H         1 <0>         0.0571
     36 H5         -0.5289    1.8773    0.9072 H         1 <0>         0.0573
     37 H6          0.5123   -0.3556   -0.8948 H         1 <0>         0.0706
     38 H7          0.5293   -0.3651    0.8851 H         1 <0>         0.0711
     39 H8         -1.9435   -0.1821    0.9097 H         1 <0>         0.0940
     40 H9         -1.9605   -0.1726   -0.8702 H         1 <0>         0.0928
     41 H10        -6.6844   -7.9794   -0.7377 H         1 <0>         0.0897
     42 H11        -5.5773   -8.2484    0.6303 H         1 <0>         0.0909
     43 H12        -7.8825   -9.1086    1.0933 H         1 <0>         0.0745
     44 H13        -7.4068   -7.8154    2.2249 H         1 <0>         0.0687
     45 H14        -9.1155   -7.4705   -0.2845 H         1 <0>         0.0860
     46 H15        -9.7023   -7.4207    1.3966 H         1 <0>         0.0822
     47 H16        -8.3177   -3.9044   -1.5678 H         1 <0>         0.1048
     48 H17       -10.3273   -2.6161   -2.1672 H         1 <0>         0.1192
     49 H18        -8.2608   -2.0549    2.2746 H         1 <0>         0.1153
     50 H19       -10.2571    0.2637    3.7503 H         1 <0>         0.0914
     51 H20        -9.7274   -1.4312    3.6281 H         1 <0>         0.0500
     52 H21        -8.7002   -0.1290    2.9821 H         1 <0>         0.0511
     53 H22       -11.3374   -0.8514   -2.6699 H         1 <0>         0.0545
     54 H23       -12.3651   -2.1534   -2.0243 H         1 <0>         0.0552
     55 H24       -13.7353   -0.3880   -3.0986 H         1 <0>         0.0719
     56 H25       -14.0651   -0.4782   -1.3518 H         1 <0>         0.0634
     57 H26       -13.0374    0.8238   -1.9974 H         1 <0>         0.0634
@<TRIPOS>BOND
     1    1    2 1
     2    1   34 1
     3    1   35 1
     4    1   36 1
     5    2    3 1
     6    2   37 1
     7    2   38 1
     8    3    4 1
     9    3   39 1
    10    3   40 1
    11    4    5 1
    12    5   22 1
    13    5    6 2
    14    6    7 1
    15    7    8 2
    16    7    9 1
    17    9   10 1
    18    9   21 1
    19    9   11 1
    20   11   12 1
    21   11   13 1
    22   11   23 1
    23   13   18 2
    24   13   14 1
    25   14   15 1
    26   14   20 2
    27   15   16 1
    28   15   41 1
    29   15   42 1
    30   16   17 1
    31   16   43 1
    32   16   44 1
    33   17   18 1
    34   17   45 1
    35   17   46 1
    36   18   19 1
    37   20   21 1
    38   21   22 2
    39   23   28 ar
    40   23   24 ar
    41   24   25 ar
    42   24   47 1
    43   25   26 ar
    44   25   48 1
    45   26   27 ar
    46   26   31 1
    47   27   28 ar
    48   27   29 1
    49   28   49 1
    50   29   30 1
    51   30   50 1
    52   30   51 1
    53   30   52 1
    54   31   32 1
    55   32   33 1
    56   32   53 1
    57   32   54 1
    58   33   55 1
    59   33   56 1
    60   33   57 1
@<TRIPOS>MOLECULE
ZINC09347151
   62    65     0     0     0
SMALL
USER_CHARGES
2-ethylsulfonyl-N-[2-[4-(4-methoxybenzothiazol-2-yl)piperazin-1-yl]ethyl]benzamide
@<TRIPOS>ATOM
      1 C1         -9.4000    4.2178    7.9729 C.3       1 <0>        -0.1449
      2 C2        -10.3066    4.0793    6.7482 C.3       1 <0>        -0.6000
      3 S1        -10.6848    5.7254    6.0866 S.o2      1 <0>         2.5039
      4 O1         -9.5121    6.3158    5.5431 O.2       1 <0>        -0.9105
      5 O2        -11.5010    6.4446    7.0008 O.2       1 <0>        -0.9430
      6 C3        -11.7238    5.4264    4.6953 C.ar      1 <0>        -0.6079
      7 C4        -13.0328    5.8626    4.7035 C.ar      1 <0>        -0.0256
      8 C5        -13.8496    5.6295    3.6116 C.ar      1 <0>        -0.1002
      9 C6        -13.3607    4.9578    2.5049 C.ar      1 <0>        -0.0742
     10 C7        -12.0526    4.5207    2.4819 C.ar      1 <0>        -0.1015
     11 C8        -11.2245    4.7484    3.5824 C.ar      1 <0>        -0.0615
     12 C9         -9.8227    4.2786    3.5665 C.2       1 <0>         0.5488
     13 O3         -9.1025    4.4828    4.5242 O.2       1 <0>        -0.4901
     14 N1         -9.3435    3.6241    2.4903 N.am      1 <0>        -0.7222
     15 C10        -7.9545    3.1586    2.4745 C.3       1 <0>         0.0912
     16 C11        -7.6684    2.4523    1.1478 C.3       1 <0>        -0.0169
     17 C12        -6.0295    1.1011   -0.0155 C.3       1 <0>         0.0094
     18 C13        -4.5938    0.5746    0.0483 C.3       1 <0>         0.0169
     19 N2         -3.6585    1.7081    0.0461 N.pl3     1 <0>        -0.4246
     20 C14        -3.9046    2.5925    1.1936 C.3       1 <0>         0.0283
     21 C15        -5.3403    3.1190    1.1298 C.3       1 <0>        -0.0037
     22 C16        -2.3491    1.2693    0.0312 C.2       1 <0>         0.2808
     23 N3         -1.2432    1.9771    0.0299 N.2       1 <0>        -0.4728
     24 C17        -0.0171    1.4073    0.0098 C.ar      1 <0>         0.0497
     25 C18         1.2465    2.0503    0.0012 C.ar      1 <0>         0.1981
     26 C19         2.4076    1.3138   -0.0138 C.ar      1 <0>        -0.2092
     27 C20         2.3843   -0.0732   -0.0210 C.ar      1 <0>        -0.0340
     28 C21         1.1680   -0.7306   -0.0130 C.ar      1 <0>        -0.1096
     29 C22         0.0021   -0.0041    0.0020 C.ar      1 <0>        -0.0904
     30 S2         -1.7284   -0.4066    0.0163 S.3       1 <0>        -0.0141
     31 O4          1.3108    3.4083    0.0074 O.3       1 <0>        -0.2986
     32 C23         2.6132    3.9962   -0.0019 C.3       1 <0>         0.0188
     33 H1         -9.1727    3.2287    8.3705 H         1 <0>         0.0824
     34 H2         -8.4739    4.7153    7.6850 H         1 <0>         0.0742
     35 H3         -9.9076    4.8081    8.7358 H         1 <0>         0.0728
     36 H4        -11.2327    3.5818    7.0361 H         1 <0>         0.1248
     37 H5         -9.7990    3.4889    5.9854 H         1 <0>         0.1421
     38 H6        -13.4205    6.3875    5.5641 H         1 <0>         0.1583
     39 H7        -14.8733    5.9736    3.6228 H         1 <0>         0.1461
     40 H8        -14.0035    4.7793    1.6556 H         1 <0>         0.1435
     41 H9        -11.6710    4.0005    1.6159 H         1 <0>         0.1331
     42 H10        -9.9183    3.4612    1.7261 H         1 <0>         0.4098
     43 H11        -7.7951    2.4629    3.2983 H         1 <0>         0.0952
     44 H12        -7.2844    4.0112    2.5842 H         1 <0>         0.0982
     45 H13        -7.8278    3.1480    0.3240 H         1 <0>         0.1438
     46 H14        -8.3385    1.5997    1.0382 H         1 <0>         0.1412
     47 H15        -6.1715    1.6586   -0.9413 H         1 <0>         0.1486
     48 H16        -6.7258    0.2631    0.0149 H         1 <0>         0.1480
     49 H17        -4.3999   -0.0586   -0.8175 H         1 <0>         0.1387
     50 H18        -4.4596   -0.0058    0.9611 H         1 <0>         0.0842
     51 H19        -3.7625    2.0350    2.1194 H         1 <0>         0.0788
     52 H20        -3.2082    3.4305    1.1628 H         1 <0>         0.1429
     53 H21        -5.4745    3.6995    0.2170 H         1 <0>         0.1493
     54 H22        -5.5344    3.7524    1.9954 H         1 <0>         0.1476
     55 H23         3.3582    1.8263   -0.0197 H         1 <0>         0.1471
     56 H24         3.3072   -0.6340   -0.0324 H         1 <0>         0.1500
     57 H25         1.1346   -1.8101   -0.0188 H         1 <0>         0.1417
     58 H26         2.5217    5.0823    0.0045 H         1 <0>         0.1085
     59 H27         3.1641    3.6728    0.8814 H         1 <0>         0.0628
     60 H28         3.1474    3.6818   -0.8985 H         1 <0>         0.0631
     61 N4         -6.2705    1.9708    1.1552 N.4       1 <0>        -0.3973
     62 H29        -6.1088    1.4291    2.0124 H         1 <0>         0.4299
@<TRIPOS>BOND
     1    1    2 1
     2    1   33 1
     3    1   34 1
     4    1   35 1
     5    2    3 1
     6    2   36 1
     7    2   37 1
     8    3    4 2
     9    3    5 2
    10    3    6 1
    11    6   11 ar
    12    6    7 ar
    13    7    8 ar
    14    7   38 1
    15    8    9 ar
    16    8   39 1
    17    9   10 ar
    18    9   40 1
    19   10   11 ar
    20   10   41 1
    21   11   12 1
    22   12   13 2
    23   12   14 am
    24   14   15 1
    25   14   42 1
    26   15   16 1
    27   15   43 1
    28   15   44 1
    29   16   45 1
    30   16   46 1
    31   16   61 1
    32   17   18 1
    33   17   47 1
    34   17   48 1
    35   17   61 1
    36   18   19 1
    37   18   49 1
    38   18   50 1
    39   19   20 1
    40   19   22 1
    41   20   21 1
    42   20   51 1
    43   20   52 1
    44   21   53 1
    45   21   54 1
    46   21   61 1
    47   22   30 1
    48   22   23 2
    49   23   24 1
    50   24   29 ar
    51   24   25 ar
    52   25   26 ar
    53   25   31 1
    54   26   27 ar
    55   26   55 1
    56   27   28 ar
    57   27   56 1
    58   28   29 ar
    59   28   57 1
    60   29   30 1
    61   31   32 1
    62   32   58 1
    63   32   59 1
    64   32   60 1
    65   61   62 1
@<TRIPOS>MOLECULE
ZINC09557533
   68    72     0     0     0
SMALL
USER_CHARGES
(3S)-1'-(3-dimethylaminopropyl)-1-ethyl-3'-hydroxy-4'-[(2S)-2-methyl2,3-dihydrobenzofuran-5-carbonyl]spiro[indoline-3,5'-pyrrole]-2,2'-dione
@<TRIPOS>ATOM
      1 C1          4.0982   -3.6984    1.3831 C.3       1 <0>        -0.1751
      2 C2          2.5791   -3.7220    1.2024 C.3       1 <0>         0.1046
      3 N1          2.1586   -2.5380    0.4490 N.am      1 <0>        -0.5479
      4 C3          2.1541   -2.4629   -0.9451 C.ar      1 <0>         0.1627
      5 C4          2.5128   -3.4028   -1.9089 C.ar      1 <0>        -0.1358
      6 C5          2.4199   -3.0916   -3.2494 C.ar      1 <0>        -0.0661
      7 C6          1.9707   -1.8457   -3.6480 C.ar      1 <0>        -0.1444
      8 C7          1.6118   -0.9068   -2.6972 C.ar      1 <0>        -0.0417
      9 C8          1.7042   -1.2133   -1.3579 C.ar      1 <0>        -0.1548
     10 C9          1.4045   -0.4430   -0.0998 C.3       1 <0>         0.2299
     11 C10         1.7323   -1.3966    1.0208 C.2       1 <0>         0.5297
     12 O1          1.6316   -1.1772    2.2094 O.2       1 <0>        -0.4528
     13 C11         2.2397    0.8055   -0.0122 C.2       1 <0>        -0.2050
     14 C12         1.3715    1.8423    0.0796 C.2       1 <0>         0.0957
     15 C13        -0.0119    1.3201    0.0555 C.2       1 <0>         0.5367
     16 O2         -1.0159    2.0016    0.1163 O.2       1 <0>        -0.4888
     17 N2          0.0062   -0.0234   -0.0497 N.am      1 <0>        -0.5814
     18 C14        -1.1639   -0.9032   -0.1046 C.3       1 <0>         0.1446
     19 C15        -1.5886   -1.0966   -1.5617 C.3       1 <0>        -0.1797
     20 C16        -2.8107   -2.0153   -1.6191 C.3       1 <0>        -0.0019
     21 C17        -2.1935   -2.9352   -3.7721 C.3       1 <0>        -0.0487
     22 C18        -4.5195   -2.8779   -3.1018 C.3       1 <0>        -0.0425
     23 O3          1.7157    3.1472    0.1775 O.3       1 <0>        -0.4133
     24 C19         3.7039    0.8848   -0.0242 C.2       1 <0>         0.4764
     25 O4          4.3122    0.7477   -1.0693 O.2       1 <0>        -0.4249
     26 C20         4.4400    1.1311    1.2314 C.ar      1 <0>        -0.2035
     27 C21         3.7453    1.4070    2.4133 C.ar      1 <0>        -0.0172
     28 C22         4.4323    1.6399    3.5806 C.ar      1 <0>        -0.1512
     29 C23         5.8280    1.6036    3.5991 C.ar      1 <0>         0.1539
     30 C24         6.5141    1.3206    2.4210 C.ar      1 <0>        -0.1876
     31 C25         5.8381    1.0846    1.2499 C.ar      1 <0>        -0.0039
     32 C26         7.9933    1.3274    2.7567 C.3       1 <0>        -0.1066
     33 C27         7.9705    1.2546    4.3018 C.3       1 <0>         0.0747
     34 H1          8.7762    1.8521    4.7284 H         1 <0>         0.1234
     35 O5          6.6896    1.8196    4.6288 O.3       1 <0>        -0.2914
     36 C28         8.0644   -0.1965    4.7775 C.3       1 <0>        -0.1726
     37 H2          4.5788   -3.6104    0.4088 H         1 <0>         0.0635
     38 H3          4.3771   -2.8470    2.0040 H         1 <0>         0.0634
     39 H4          4.4211   -4.6211    1.8655 H         1 <0>         0.0807
     40 H5          2.0968   -3.7209    2.1798 H         1 <0>         0.0974
     41 H6          2.2921   -4.6208    0.6566 H         1 <0>         0.0907
     42 H7          2.8648   -4.3777   -1.6055 H         1 <0>         0.1333
     43 H8          2.6998   -3.8245   -3.9917 H         1 <0>         0.1384
     44 H9          1.9000   -1.6065   -4.6988 H         1 <0>         0.1361
     45 H10         1.2601    0.0668   -3.0054 H         1 <0>         0.1270
     46 H11        -0.9126   -1.8698    0.3320 H         1 <0>         0.0926
     47 H12        -1.9833   -0.4533    0.4560 H         1 <0>         0.1078
     48 H13        -1.8399   -0.1300   -1.9983 H         1 <0>         0.0976
     49 H14        -0.7692   -1.5464   -2.1223 H         1 <0>         0.0985
     50 H15        -2.5593   -2.9820   -1.1825 H         1 <0>         0.1339
     51 H16        -3.6301   -1.5655   -1.0585 H         1 <0>         0.1347
     52 H17        -2.0415   -3.9150   -3.3194 H         1 <0>         0.1242
     53 H18        -2.5208   -3.0588   -4.8045 H         1 <0>         0.1249
     54 H19        -1.2578   -2.3765   -3.7520 H         1 <0>         0.1217
     55 H20        -5.2747   -2.2777   -2.5944 H         1 <0>         0.1227
     56 H21        -4.7974   -3.0027   -4.1484 H         1 <0>         0.1241
     57 H22        -4.4517   -3.8557   -2.6248 H         1 <0>         0.1237
     58 H23         0.8888    3.7069    0.2315 H         1 <0>         0.4192
     59 H24         2.6657    1.4369    2.4088 H         1 <0>         0.1325
     60 H25         3.8890    1.8520    4.4896 H         1 <0>         0.1379
     61 H26         6.3844    0.8676    0.3439 H         1 <0>         0.1371
     62 H27         8.4929    0.4562    2.3330 H         1 <0>         0.0972
     63 H28         8.4656    2.2491    2.4170 H         1 <0>         0.0970
     64 H29         8.9944   -0.6371    4.4182 H         1 <0>         0.0799
     65 H30         8.0466   -0.2236    5.8670 H         1 <0>         0.0723
     66 H31         7.2192   -0.7626    4.3861 H         1 <0>         0.0613
     67 N3         -3.2212   -2.1750   -3.0300 N.4       1 <0>        -0.3971
     68 H32        -3.3210   -1.2460   -3.4555 H         1 <0>         0.4323
@<TRIPOS>BOND
     1    1    2 1
     2    1   37 1
     3    1   38 1
     4    1   39 1
     5    2    3 1
     6    2   40 1
     7    2   41 1
     8    3   11 am
     9    3    4 1
    10    4    9 ar
    11    4    5 ar
    12    5    6 ar
    13    5   42 1
    14    6    7 ar
    15    6   43 1
    16    7    8 ar
    17    7   44 1
    18    8    9 ar
    19    8   45 1
    20    9   10 1
    21   10   17 1
    22   10   11 1
    23   10   13 1
    24   11   12 2
    25   13   14 2
    26   13   24 1
    27   14   15 1
    28   14   23 1
    29   15   16 2
    30   15   17 am
    31   17   18 1
    32   18   19 1
    33   18   46 1
    34   18   47 1
    35   19   20 1
    36   19   48 1
    37   19   49 1
    38   20   50 1
    39   20   51 1
    40   20   67 1
    41   21   52 1
    42   21   53 1
    43   21   54 1
    44   21   67 1
    45   22   55 1
    46   22   56 1
    47   22   57 1
    48   22   67 1
    49   23   58 1
    50   24   25 2
    51   24   26 1
    52   26   31 ar
    53   26   27 ar
    54   27   28 ar
    55   27   59 1
    56   28   29 ar
    57   28   60 1
    58   29   35 1
    59   29   30 ar
    60   30   31 ar
    61   30   32 1
    62   31   61 1
    63   32   33 1
    64   32   62 1
    65   32   63 1
    66   33   34 1
    67   33   35 1
    68   33   36 1
    69   36   64 1
    70   36   65 1
    71   36   66 1
    72   67   68 1
@<TRIPOS>MOLECULE
ZINC20115008
   66    69     0     0     0
SMALL
USER_CHARGES
2-[(4R)-1-(3-chloro-4-methoxy-phenyl)-3-[2-(4-methylpiperazin-1-yl)ethyl]-5-oxo-2-thioxo-imidazolidin-4-yl]-N-phenyl-acetamide
@<TRIPOS>ATOM
      1 C1         -0.6350    3.5525    2.2170 C.3       1 <0>        -0.0453
      2 N1         -0.0847    2.9645    0.9885 N.4       1 <0>        -0.4038
      3 C2         -0.1339    1.4967    1.0393 C.3       1 <0>         0.0010
      4 C3          0.5187    0.9231   -0.2207 C.3       1 <0>         0.0249
      5 N2         -0.1836    1.4304   -1.4078 N.3       1 <0>        -0.5323
      6 C4         -0.1339    2.8983   -1.4583 C.3       1 <0>         0.0097
      7 C5         -0.7870    3.4718   -0.1986 C.3       1 <0>         0.0007
      8 C6          0.3668    0.8425   -2.6364 C.3       1 <0>         0.0306
      9 C7         -0.2094    1.5703   -3.8526 C.3       1 <0>         0.1275
     10 N3          0.3394    0.9839   -5.0778 N.pl3     1 <0>        -0.5597
     11 C8         -0.2889   -0.0519   -5.9159 C.3       1 <0>         0.0926
     12 H1         -1.2772    0.2706   -6.2753 H         1 <0>         0.1587
     13 C9          0.7153   -0.2652   -7.0312 C.2       1 <0>         0.5134
     14 O1          0.6219   -1.0349   -7.9634 O.2       1 <0>        -0.3958
     15 N4          1.7338    0.5780   -6.7707 N.am      1 <0>        -0.4845
     16 C10         1.5127    1.2906   -5.6601 C.2       1 <0>         0.5349
     17 S1          2.6030    2.4590   -5.0463 S.2       1 <0>        -0.5324
     18 C11         2.8816    0.6981   -7.5689 C.ar      1 <0>         0.0785
     19 C12         3.7894   -0.3498   -7.6416 C.ar      1 <0>        -0.0434
     20 C13         4.9190   -0.2317   -8.4271 C.ar      1 <0>        -0.1881
     21 C14         5.1472    0.9337   -9.1438 C.ar      1 <0>         0.1657
     22 C15         4.2399    1.9819   -9.0721 C.ar      1 <0>        -0.0613
     23 C16         3.1067    1.8622   -8.2903 C.ar      1 <0>        -0.0286
     24 Cl1         4.5255    3.4402   -9.9696 Cl        1 <0>        -0.0343
     25 O2          6.2602    1.0497   -9.9164 O.3       1 <0>        -0.2963
     26 C17         7.1508   -0.0675   -9.9429 C.3       1 <0>         0.0173
     27 C18        -0.4890   -1.3418   -5.1178 C.3       1 <0>        -0.1428
     28 C19        -1.2676   -2.3301   -5.9474 C.2       1 <0>         0.5127
     29 O3         -1.7084   -2.0005   -7.0281 O.2       1 <0>        -0.4972
     30 N5         -1.4741   -3.5804   -5.4883 N.am      1 <0>        -0.6806
     31 C20        -2.1186   -4.5244   -6.2953 C.ar      1 <0>         0.1397
     32 C21        -3.1496   -4.1312   -7.1384 C.ar      1 <0>        -0.1191
     33 C22        -3.7799   -5.0645   -7.9379 C.ar      1 <0>        -0.1014
     34 C23        -3.3933   -6.3913   -7.8907 C.ar      1 <0>        -0.1286
     35 C24        -2.3706   -6.7870   -7.0484 C.ar      1 <0>        -0.1012
     36 C25        -1.7324   -5.8576   -6.2506 C.ar      1 <0>        -0.1428
     37 H2         -0.0924    3.1565    3.0880 H         1 <0>         0.1247
     38 H3         -1.7011    3.2951    2.3011 H         1 <0>         0.1199
     39 H4         -0.5236    4.6463    2.1818 H         1 <0>         0.1254
     40 H5          0.4085    1.1422    1.9282 H         1 <0>         0.1371
     41 H6         -1.1818    1.1666    1.0934 H         1 <0>         0.1352
     42 H7          1.5743    1.2301   -0.2591 H         1 <0>         0.0664
     43 H8          0.4568   -0.1749   -0.1983 H         1 <0>         0.1236
     44 H9          0.9142    3.2280   -1.5117 H         1 <0>         0.0734
     45 H10        -0.6757    3.2532   -2.3474 H         1 <0>         0.1272
     46 H11        -1.8425    3.1646   -0.1593 H         1 <0>         0.1350
     47 H12        -0.7253    4.5699   -0.2198 H         1 <0>         0.1382
     48 H13         1.4621    0.9445   -2.6330 H         1 <0>         0.0698
     49 H14         0.0980   -0.2230   -2.6854 H         1 <0>         0.0941
     50 H15        -1.3047    1.4683   -3.8559 H         1 <0>         0.1124
     51 H16         0.0595    2.6358   -3.8037 H         1 <0>         0.1132
     52 H17         3.6124   -1.2573   -7.0835 H         1 <0>         0.1335
     53 H18         5.6252   -1.0469   -8.4832 H         1 <0>         0.1508
     54 H19         2.3985    2.6759   -8.2375 H         1 <0>         0.1455
     55 H20         8.0027    0.1582  -10.6012 H         1 <0>         0.1119
     56 H21         6.6183   -0.9520  -10.3226 H         1 <0>         0.0631
     57 H22         7.5170   -0.2687   -8.9253 H         1 <0>         0.0628
     58 H23         0.4912   -1.7701   -4.8614 H         1 <0>         0.1073
     59 H24        -1.0447   -1.1195   -4.1949 H         1 <0>         0.1244
     60 H25        -1.1360   -3.8586   -4.4792 H         1 <0>         0.4330
     61 H26        -3.4555   -3.0959   -7.1719 H         1 <0>         0.1350
     62 H27        -4.5791   -4.7586   -8.5968 H         1 <0>         0.1272
     63 H28        -3.8910   -7.1201   -8.5133 H         1 <0>         0.1260
     64 H29        -2.0707   -7.8240   -7.0141 H         1 <0>         0.1281
     65 H30        -0.9342   -6.1674   -5.5924 H         1 <0>         0.1243
     66 H31         0.9704    3.2664    0.9138 H         1 <0>         0.4427
@<TRIPOS>BOND
     1    1    2 1
     2    1   37 1
     3    1   38 1
     4    1   39 1
     5    2    7 1
     6    2    3 1
     7    2   66 1
     8    3    4 1
     9    3   40 1
    10    3   41 1
    11    4    5 1
    12    4   42 1
    13    4   43 1
    14    5    6 1
    15    5    8 1
    16    6    7 1
    17    6   44 1
    18    6   45 1
    19    7   46 1
    20    7   47 1
    21    8    9 1
    22    8   48 1
    23    8   49 1
    24    9   10 1
    25    9   50 1
    26    9   51 1
    27   10   16 1
    28   10   11 1
    29   11   12 1
    30   11   13 1
    31   11   27 1
    32   13   14 2
    33   13   15 am
    34   15   16 1
    35   15   18 1
    36   16   17 2
    37   18   23 ar
    38   18   19 ar
    39   19   20 ar
    40   19   52 1
    41   20   21 ar
    42   20   53 1
    43   21   22 ar
    44   21   25 1
    45   22   23 ar
    46   22   24 1
    47   23   54 1
    48   25   26 1
    49   26   55 1
    50   26   56 1
    51   26   57 1
    52   27   28 1
    53   27   58 1
    54   27   59 1
    55   28   29 2
    56   28   30 am
    57   30   31 1
    58   30   60 1
    59   31   36 ar
    60   31   32 ar
    61   32   33 ar
    62   32   61 1
    63   33   34 ar
    64   33   62 1
    65   34   35 ar
    66   34   63 1
    67   35   36 ar
    68   35   64 1
    69   36   65 1
@<TRIPOS>MOLECULE
ZINC36304597
   74    77     0     0     0
SMALL
USER_CHARGES

@<TRIPOS>ATOM
      1 C1         -3.1984    2.3108    2.3944 C.3       1 <0>        -0.1549
      2 C2         -3.8034    0.9431    2.7174 C.3       1 <0>         0.0576
      3 O1         -3.6640    0.0814    1.5860 O.3       1 <0>        -0.3757
      4 C3         -4.1999   -1.2285    1.7836 C.3       1 <0>         0.0332
      5 C4         -3.9963   -2.0595    0.5152 C.3       1 <0>         0.0881
      6 H1         -2.9402   -2.0581    0.2454 H         1 <0>         0.1285
      7 C5         -4.4563   -3.4967    0.7677 C.3       1 <0>        -0.0490
      8 N1         -4.1509   -4.3223   -0.4083 N.4       1 <0>        -0.3750
      9 C6         -4.6986   -5.6716   -0.2149 C.3       1 <0>         0.0832
     10 C7         -6.2032   -5.6008   -0.1660 C.2       1 <0>        -0.3024
     11 C8         -6.9873   -5.5466    0.9903 C.2       1 <0>         0.1071
     12 N2         -8.2457   -5.4930    0.6353 N.2       1 <0>        -0.2409
     13 N3         -8.3114   -5.5110   -0.7638 N.pl3     1 <0>        -0.3005
     14 C9         -7.0384   -5.5724   -1.2388 C.2       1 <0>         0.3031
     15 O2         -6.6693   -5.6030   -2.5445 O.3       1 <0>        -0.2329
     16 C10        -6.6285   -6.8104   -3.1682 C.ar      1 <0>         0.0570
     17 C11        -7.0642   -7.9486   -2.5053 C.ar      1 <0>        -0.1411
     18 C12        -7.0226   -9.1752   -3.1390 C.ar      1 <0>        -0.1142
     19 C13        -6.5450   -9.2690   -4.4378 C.ar      1 <0>         0.1213
     20 C14        -6.1090   -8.1312   -5.1005 C.ar      1 <0>        -0.1721
     21 C15        -6.1566   -6.9035   -4.4694 C.ar      1 <0>        -0.0804
     22 O3         -6.5038  -10.4767   -5.0614 O.3       1 <0>        -0.3117
     23 C16        -6.0002  -10.4996   -6.3985 C.3       1 <0>         0.0234
     24 C17        -9.4801   -5.4686   -1.5365 C.ar      1 <0>         0.1128
     25 C18        -9.5247   -4.6948   -2.6884 C.ar      1 <0>        -0.1067
     26 C19       -10.6776   -4.6554   -3.4479 C.ar      1 <0>        -0.1000
     27 C20       -11.7868   -5.3852   -3.0619 C.ar      1 <0>        -0.0984
     28 C21       -11.7456   -6.1564   -1.9149 C.ar      1 <0>        -0.1012
     29 C22       -10.5936   -6.2048   -1.1545 C.ar      1 <0>        -0.0940
     30 C23        -6.4707   -5.5494    2.4060 C.3       1 <0>        -0.0915
     31 C24        -2.6948   -4.4054   -0.5836 C.3       1 <0>        -0.0283
     32 C25        -2.3793   -5.1361   -1.8903 C.3       1 <0>         0.0549
     33 H2         -2.8034   -6.1398   -1.8643 H         1 <0>         0.1032
     34 C26        -0.8504   -5.2185   -2.0883 C.3       1 <0>        -0.1466
     35 C27        -0.7023   -4.9769   -3.6153 C.3       1 <0>        -0.1562
     36 C28        -1.8610   -3.9799   -3.8691 C.3       1 <0>         0.0496
     37 O4         -2.9223   -4.4077   -2.9977 O.3       1 <0>        -0.3768
     38 O5         -4.7612   -1.4951   -0.5518 O.3       1 <0>        -0.5397
     39 H3         -3.3047    2.9680    3.2574 H         1 <0>         0.0778
     40 H4         -2.1415    2.1932    2.1552 H         1 <0>         0.0651
     41 H5         -3.7180    2.7454    1.5405 H         1 <0>         0.0659
     42 H6         -3.2838    0.5084    3.5714 H         1 <0>         0.0533
     43 H7         -4.8603    1.0606    2.9566 H         1 <0>         0.0530
     44 H8         -3.6885   -1.7082    2.6182 H         1 <0>         0.0681
     45 H9         -5.2650   -1.1560    2.0034 H         1 <0>         0.0626
     46 H10        -3.9359   -3.8971    1.6377 H         1 <0>         0.1430
     47 H11        -5.5308   -3.5076    0.9502 H         1 <0>         0.1352
     48 H12        -4.3917   -6.3105   -1.0430 H         1 <0>         0.1354
     49 H13        -4.3237   -6.0852    0.7213 H         1 <0>         0.1409
     50 H14        -7.4354   -7.8757   -1.4937 H         1 <0>         0.1272
     51 H15        -7.3618  -10.0613   -2.6230 H         1 <0>         0.1404
     52 H16        -5.7365   -8.2045   -6.1116 H         1 <0>         0.1441
     53 H17        -5.8217   -6.0168   -4.9871 H         1 <0>         0.1412
     54 H18        -6.0217  -11.5213   -6.7774 H         1 <0>         0.1073
     55 H19        -6.6201   -9.8643   -7.0312 H         1 <0>         0.0597
     56 H20        -4.9746  -10.1305   -6.4068 H         1 <0>         0.0587
     57 H21        -8.6589   -4.1240   -2.9900 H         1 <0>         0.1317
     58 H22       -10.7129   -4.0537   -4.3441 H         1 <0>         0.1392
     59 H23       -12.6873   -5.3525   -3.6572 H         1 <0>         0.1375
     60 H24       -12.6137   -6.7251   -1.6157 H         1 <0>         0.1400
     61 H25       -10.5605   -6.8108   -0.2612 H         1 <0>         0.1352
     62 H26        -6.2980   -4.5237    2.7318 H         1 <0>         0.0864
     63 H27        -7.2052   -6.0195    3.0599 H         1 <0>         0.0947
     64 H28        -5.5352   -6.1071    2.4503 H         1 <0>         0.0857
     65 H29        -2.2752   -3.4001   -0.6190 H         1 <0>         0.1364
     66 H30        -2.2588   -4.9519    0.2526 H         1 <0>         0.1412
     67 H31        -0.3432   -4.4380   -1.5211 H         1 <0>         0.0888
     68 H32        -0.4763   -6.2047   -1.8135 H         1 <0>         0.0977
     69 H33         0.2620   -4.5263   -3.8500 H         1 <0>         0.0959
     70 H34        -0.8490   -5.9005   -4.1752 H         1 <0>         0.0865
     71 H35        -1.5497   -2.9660   -3.6177 H         1 <0>         0.0714
     72 H36        -2.1829   -4.0308   -4.9092 H         1 <0>         0.0981
     73 H37        -5.7124   -1.4644   -0.3805 H         1 <0>         0.3861
     74 H38        -4.5652   -3.9056   -1.2286 H         1 <0>         0.4356
@<TRIPOS>BOND
     1    1    2 1
     2    1   39 1
     3    1   40 1
     4    1   41 1
     5    2    3 1
     6    2   42 1
     7    2   43 1
     8    3    4 1
     9    4    5 1
    10    4   44 1
    11    4   45 1
    12    5    6 1
    13    5    7 1
    14    5   38 1
    15    7    8 1
    16    7   46 1
    17    7   47 1
    18    8    9 1
    19    8   31 1
    20    8   74 1
    21    9   10 1
    22    9   48 1
    23    9   49 1
    24   10   14 2
    25   10   11 1
    26   11   12 2
    27   11   30 1
    28   12   13 1
    29   13   14 1
    30   13   24 1
    31   14   15 1
    32   15   16 1
    33   16   21 ar
    34   16   17 ar
    35   17   18 ar
    36   17   50 1
    37   18   19 ar
    38   18   51 1
    39   19   20 ar
    40   19   22 1
    41   20   21 ar
    42   20   52 1
    43   21   53 1
    44   22   23 1
    45   23   54 1
    46   23   55 1
    47   23   56 1
    48   24   29 ar
    49   24   25 ar
    50   25   26 ar
    51   25   57 1
    52   26   27 ar
    53   26   58 1
    54   27   28 ar
    55   27   59 1
    56   28   29 ar
    57   28   60 1
    58   29   61 1
    59   30   62 1
    60   30   63 1
    61   30   64 1
    62   31   32 1
    63   31   65 1
    64   31   66 1
    65   32   33 1
    66   32   37 1
    67   32   34 1
    68   34   35 1
    69   34   67 1
    70   34   68 1
    71   35   36 1
    72   35   69 1
    73   35   70 1
    74   36   37 1
    75   36   71 1
    76   36   72 1
    77   38   73 1
@<TRIPOS>MOLECULE
ZINC63187724
   61    65     0     0     0
SMALL
USER_CHARGES

@<TRIPOS>ATOM
      1 C1         -0.0178    1.4608    0.0101 C.3       1 <0>         0.0686
      2 N1          0.0021   -0.0041    0.0020 N.am      1 <0>        -0.6026
      3 C2          0.0241   -0.7433    1.2666 C.3       1 <0>         0.1220
      4 C3         -1.4105   -1.0203    1.7205 C.3       1 <0>         0.0628
      5 H1         -1.9484   -1.6015    0.9717 H         1 <0>         0.0886
      6 C4         -1.4278   -1.7359    3.0932 C.3       1 <0>        -0.1136
      7 C5         -2.6309   -1.0934    3.7626 C.2       1 <0>        -0.2543
      8 C6         -2.9326   -0.0015    3.0652 C.2       1 <0>         0.1031
      9 O1         -2.1036    0.2080    2.0140 O.3       1 <0>        -0.3048
     10 C7         -4.0619    0.8943    3.4025 C.ar      1 <0>        -0.0388
     11 C8         -4.8710    0.6161    4.5041 C.ar      1 <0>        -0.0850
     12 C9         -5.9218    1.4546    4.8142 C.ar      1 <0>        -0.1080
     13 C10        -6.1741    2.5702    4.0339 C.ar      1 <0>        -0.0266
     14 C11        -5.3744    2.8509    2.9390 C.ar      1 <0>        -0.1105
     15 C12        -4.3172    2.0227    2.6234 C.ar      1 <0>        -0.0818
     16 Cl1        -7.4984    3.6207    4.4296 Cl        1 <0>        -0.0608
     17 C13         0.0001   -0.6716   -1.1688 C.2       1 <0>         0.5055
     18 O2          0.0165   -1.8843   -1.1755 O.2       1 <0>        -0.5350
     19 C14        -0.0226    0.0888   -2.4697 C.3       1 <0>         0.0988
     20 N2         -0.0203   -0.8571   -3.5884 N.am      1 <0>        -0.5575
     21 C15         1.0957   -1.3348   -4.1736 C.2       1 <0>         0.5348
     22 O3          2.2436   -1.0729   -3.8846 O.2       1 <0>        -0.4424
     23 C16         0.6172   -2.2685   -5.2676 C.3       1 <0>         0.1021
     24 H2          0.9476   -1.9157   -6.2446 H         1 <0>         0.1407
     25 N3         -0.8506   -2.2023   -5.1619 N.am      1 <0>        -0.7326
     26 C17        -1.1259   -1.3578   -4.1515 C.2       1 <0>         0.7106
     27 O4         -2.2529   -1.0784   -3.7925 O.2       1 <0>        -0.5156
     28 C18         1.1146   -3.6932   -5.0151 C.3       1 <0>        -0.0931
     29 C19         0.7300   -4.5729   -6.1768 C.2       1 <0>         0.0598
     30 C20         1.4951   -4.8874   -7.2468 C.ar      1 <0>        -0.1598
     31 C21         2.8615   -4.5180   -7.6352 C.ar      1 <0>        -0.0148
     32 C22         3.3674   -5.0002   -8.7931 C.ar      1 <0>        -0.1476
     33 C23         2.6212   -5.8416   -9.6296 C.ar      1 <0>         0.0570
     34 C24         1.3596   -6.2250   -9.3404 C.ar      1 <0>        -0.2100
     35 C25         0.7281   -5.7776   -8.1473 C.ar      1 <0>         0.3292
     36 N4         -0.4648   -6.0045   -7.6531 N.pl3     1 <0>        -0.5827
     37 C26        -0.5873   -5.2879   -6.3787 C.3       1 <0>         0.0605
     38 H3          1.0048    1.8381    0.0023 H         1 <0>         0.0664
     39 H4         -0.5450    1.8219   -0.8730 H         1 <0>         0.0735
     40 H5         -0.5280    1.8123    0.9069 H         1 <0>         0.0894
     41 H6          0.5496   -1.6879    1.1262 H         1 <0>         0.1064
     42 H7          0.5371   -0.1514    2.0246 H         1 <0>         0.0952
     43 H8         -1.5758   -2.8089    2.9719 H         1 <0>         0.0893
     44 H9         -0.5146   -1.5303    3.6518 H         1 <0>         0.0892
     45 H10        -3.1452   -1.4557    4.6405 H         1 <0>         0.1520
     46 H11        -4.6755   -0.2542    5.1129 H         1 <0>         0.1379
     47 H12        -6.5490    1.2401    5.6669 H         1 <0>         0.1410
     48 H13        -5.5759    3.7223    2.3336 H         1 <0>         0.1387
     49 H14        -3.6912    2.2450    1.7718 H         1 <0>         0.1377
     50 H15        -0.9215    0.7036   -2.5156 H         1 <0>         0.1341
     51 H16         0.8582    0.7278   -2.5324 H         1 <0>         0.1327
     52 H17        -1.4933   -2.6772   -5.7117 H         1 <0>         0.4357
     53 H18         2.1993   -3.6858   -4.9085 H         1 <0>         0.1372
     54 H19         0.6624   -4.0794   -4.1016 H         1 <0>         0.1283
     55 H20         3.4540   -3.8704   -7.0059 H         1 <0>         0.1645
     56 H21         4.3726   -4.7297   -9.0808 H         1 <0>         0.1598
     57 H22         3.0740   -6.1975  -10.5433 H         1 <0>         0.1621
     58 H23         0.8269   -6.8748  -10.0189 H         1 <0>         0.1616
     59 H24        -0.7614   -5.9917   -5.5648 H         1 <0>         0.1786
     60 H25        -1.4022   -4.5660   -6.4329 H         1 <0>         0.1657
     61 H26        -1.1503   -6.5571   -8.0600 H         1 <0>         0.4572
@<TRIPOS>BOND
     1    1    2 1
     2    1   38 1
     3    1   39 1
     4    1   40 1
     5    2    3 1
     6    2   17 am
     7    3    4 1
     8    3   41 1
     9    3   42 1
    10    4    5 1
    11    4    9 1
    12    4    6 1
    13    6    7 1
    14    6   43 1
    15    6   44 1
    16    7    8 2
    17    7   45 1
    18    8    9 1
    19    8   10 1
    20   10   15 ar
    21   10   11 ar
    22   11   12 ar
    23   11   46 1
    24   12   13 ar
    25   12   47 1
    26   13   14 ar
    27   13   16 1
    28   14   15 ar
    29   14   48 1
    30   15   49 1
    31   17   18 2
    32   17   19 1
    33   19   20 1
    34   19   50 1
    35   19   51 1
    36   20   26 am
    37   20   21 am
    38   21   22 2
    39   21   23 1
    40   23   24 1
    41   23   25 1
    42   23   28 1
    43   25   26 am
    44   25   52 1
    45   26   27 2
    46   28   29 1
    47   28   53 1
    48   28   54 1
    49   29   37 1
    50   29   30 2
    51   30   35 ar
    52   30   31 ar
    53   31   32 ar
    54   31   55 1
    55   32   33 ar
    56   32   56 1
    57   33   34 ar
    58   33   57 1
    59   34   35 ar
    60   34   58 1
    61   35   36 2
    62   36   37 1
    63   36   61 1
    64   37   59 1
    65   37   60 1
@<TRIPOS>MOLECULE
ZINC08694646
   60    62     0     0     0
SMALL
USER_CHARGES
2-(3-chloro-2-methyl-phenyl)aminoimino-N,N'-bis(p-tolylsulfonyl)propanediamide
@<TRIPOS>ATOM
      1 C1         -4.7166   10.0228   -3.9331 C.3       1 <0>        -0.1271
      2 C2         -4.4971    9.0732   -2.7838 C.ar      1 <0>        -0.0205
      3 C3         -4.9825    7.7807   -2.8527 C.ar      1 <0>        -0.1459
      4 C4         -4.7812    6.9096   -1.7984 C.ar      1 <0>        -0.0141
      5 C5         -4.0936    7.3307   -0.6755 C.ar      1 <0>        -0.6861
      6 C6         -3.6123    8.6246   -0.6046 C.ar      1 <0>         0.0057
      7 C7         -3.8098    9.4944   -1.6607 C.ar      1 <0>        -0.1448
      8 S1         -3.8369    6.2204    0.6683 S.o2      1 <0>         2.6784
      9 O1         -4.8616    5.2394    0.5860 O.2       1 <0>        -0.9353
     10 O2         -3.6405    7.0217    1.8253 O.2       1 <0>        -0.9225
     11 N1         -2.4062    5.4350    0.3881 N.am      1 <0>        -1.0422
     12 C8         -1.2486    6.1254    0.3808 C.2       1 <0>         0.6314
     13 O3         -1.2549    7.3255    0.5800 O.2       1 <0>        -0.4745
     14 C9          0.0219    5.4279    0.1320 C.2       1 <0>        -0.0868
     15 N2          0.0287    4.1282   -0.0838 N.2       1 <0>        -0.0977
     16 N3          1.1490    3.5004   -0.2051 N.pl3     1 <0>        -0.4745
     17 C10         1.1602    2.1103   -0.3272 C.ar      1 <0>         0.1594
     18 C11        -0.0351    1.4006   -0.3183 C.ar      1 <0>        -0.1199
     19 C12        -0.0210    0.0253   -0.4388 C.ar      1 <0>        -0.0817
     20 C13         1.1806   -0.6472   -0.5683 C.ar      1 <0>        -0.1138
     21 C14         2.3730    0.0555   -0.5776 C.ar      1 <0>        -0.0096
     22 C15         2.3660    1.4324   -0.4574 C.ar      1 <0>        -0.0998
     23 C16         3.6644    2.1974   -0.4680 C.3       1 <0>        -0.1294
     24 Cl1         3.8785   -0.7932   -0.7410 Cl        1 <0>        -0.0486
     25 C17         1.2849    6.1812    0.1240 C.2       1 <0>         0.5793
     26 O4          1.6580    6.7325   -0.8943 O.2       1 <0>        -0.4509
     27 N4          2.0292    6.2609    1.2448 N.am      1 <0>        -1.0500
     28 S2          3.5089    7.0032    1.2051 S.o2      1 <0>         2.6703
     29 O5          4.0258    6.9494    2.5277 O.2       1 <0>        -0.9322
     30 O6          4.2059    6.4604    0.0921 O.2       1 <0>        -0.9280
     31 C18         3.2287    8.7046    0.8428 C.ar      1 <0>        -0.6832
     32 C19         3.2109    9.1379   -0.4698 C.ar      1 <0>         0.0070
     33 C20         2.9867   10.4720   -0.7542 C.ar      1 <0>        -0.1443
     34 C21         2.7897   11.3744    0.2742 C.ar      1 <0>        -0.0183
     35 C22         2.8123   10.9419    1.5870 C.ar      1 <0>        -0.1437
     36 C23         3.0322    9.6071    1.8713 C.ar      1 <0>        -0.0117
     37 C24         2.5500   12.8296   -0.0357 C.3       1 <0>        -0.1270
     38 H1         -5.6529   10.5610   -3.7861 H         1 <0>         0.0816
     39 H2         -3.8920   10.7342   -3.9792 H         1 <0>         0.0739
     40 H3         -4.7635    9.4601   -4.8655 H         1 <0>         0.0740
     41 H4         -5.5194    7.4516   -3.7301 H         1 <0>         0.1349
     42 H5         -5.1608    5.9000   -1.8520 H         1 <0>         0.1421
     43 H6         -3.0789    8.9550    0.2745 H         1 <0>         0.1487
     44 H7         -3.4303   10.5041   -1.6070 H         1 <0>         0.1341
     45 H8         -2.4012    4.4781    0.2292 H         1 <0>         0.4404
     46 H9          1.9837    3.9945   -0.2114 H         1 <0>         0.3987
     47 H10        -0.9743    1.9250   -0.2217 H         1 <0>         0.1467
     48 H11        -0.9495   -0.5263   -0.4316 H         1 <0>         0.1457
     49 H12         1.1886   -1.7231   -0.6620 H         1 <0>         0.1422
     50 H13         3.9166    2.4707   -1.4926 H         1 <0>         0.0879
     51 H14         3.5590    3.1003    0.1335 H         1 <0>         0.0610
     52 H15         4.4565    1.5744   -0.0527 H         1 <0>         0.0907
     53 H16         1.6980    5.8833    2.0747 H         1 <0>         0.4408
     54 H17         3.3688    8.4336   -1.2731 H         1 <0>         0.1464
     55 H18         2.9687   10.8098   -1.7799 H         1 <0>         0.1346
     56 H19         2.6584   11.6469    2.3905 H         1 <0>         0.1360
     57 H20         3.0501    9.2693    2.8969 H         1 <0>         0.1417
     58 H21         3.5040   13.3557   -0.0700 H         1 <0>         0.0816
     59 H22         2.0513   12.9181   -1.0009 H         1 <0>         0.0742
     60 H23         1.9213   13.2674    0.7397 H         1 <0>         0.0748
@<TRIPOS>BOND
     1    1    2 1
     2    1   38 1
     3    1   39 1
     4    1   40 1
     5    2    7 ar
     6    2    3 ar
     7    3    4 ar
     8    3   41 1
     9    4    5 ar
    10    4   42 1
    11    5    6 ar
    12    5    8 1
    13    6    7 ar
    14    6   43 1
    15    7   44 1
    16    8    9 2
    17    8   10 2
    18    8   11 1
    19   11   12 am
    20   11   45 1
    21   12   13 2
    22   12   14 1
    23   14   15 2
    24   14   25 1
    25   15   16 1
    26   16   17 1
    27   16   46 1
    28   17   22 ar
    29   17   18 ar
    30   18   19 ar
    31   18   47 1
    32   19   20 ar
    33   19   48 1
    34   20   21 ar
    35   20   49 1
    36   21   22 ar
    37   21   24 1
    38   22   23 1
    39   23   50 1
    40   23   51 1
    41   23   52 1
    42   25   26 2
    43   25   27 am
    44   27   28 1
    45   27   53 1
    46   28   29 2
    47   28   30 2
    48   28   31 1
    49   31   36 ar
    50   31   32 ar
    51   32   33 ar
    52   32   54 1
    53   33   34 ar
    54   33   55 1
    55   34   35 ar
    56   34   37 1
    57   35   36 ar
    58   35   56 1
    59   36   57 1
    60   37   58 1
    61   37   59 1
    62   37   60 1
@<TRIPOS>MOLECULE
ZINC08918549
   72    77     0     0     0
SMALL
USER_CHARGES
(2-ethoxy-3-methoxy-phenyl)-(3-imidazol-1-ylpropyl)-methyl-BLAHdione
@<TRIPOS>ATOM
      1 C1         -1.9588    0.2682   -0.4318 C.3       1 <0>        -0.1509
      2 C2         -0.4595    0.5587   -0.5247 C.3       1 <0>         0.0589
      3 O1         -0.2131    1.9157   -0.1505 O.3       1 <0>        -0.3198
      4 C3          1.0864    2.3103   -0.0790 C.ar      1 <0>         0.0731
      5 C4          1.7423    2.3220    1.1415 C.ar      1 <0>        -0.0445
      6 C5          3.0649    2.7183    1.2116 C.ar      1 <0>        -0.1254
      7 C6          3.7328    3.1135    0.0675 C.ar      1 <0>        -0.0828
      8 C7          3.0826    3.1096   -1.1525 C.ar      1 <0>        -0.1966
      9 C8          1.7585    2.7085   -1.2305 C.ar      1 <0>         0.1116
     10 O2          1.1173    2.7045   -2.4298 O.3       1 <0>        -0.3066
     11 C9          1.8697    3.1258   -3.5692 C.3       1 <0>         0.0249
     12 C10         1.0155    1.8978    2.3916 C.3       1 <0>         0.0137
     13 H1          0.1079    1.3587    2.1202 H         1 <0>         0.1090
     14 C11         0.6483    3.1371    3.2165 C.3       1 <0>         0.1173
     15 N1          1.8654    3.6491    3.8730 N.am      1 <0>        -0.5907
     16 C12         2.3293    4.8572    3.5431 C.2       1 <0>         0.5165
     17 O3          1.6480    5.5468    2.8142 O.2       1 <0>        -0.5142
     18 C13         3.6334    5.4143    4.0139 C.3       1 <0>         0.0962
     19 N2          4.3711    4.4667    4.8330 N.am      1 <0>        -0.5962
     20 C14         3.8819    3.2890    5.2217 C.2       1 <0>         0.5283
     21 O4          4.5876    2.5738    5.9009 O.2       1 <0>        -0.5253
     22 C15         2.5164    2.7994    4.8702 C.3       1 <0>         0.2302
     23 C16         2.5818    1.3954    4.3181 C.2       1 <0>         0.0643
     24 C17         1.9075    1.0036    3.2140 C.2       1 <0>        -0.1336
     25 C18         2.2185   -0.3956    3.0039 C.ar      1 <0>        -0.0970
     26 C19         1.8176   -1.3206    2.0351 C.ar      1 <0>        -0.0650
     27 C20         2.3237   -2.5923    2.1438 C.ar      1 <0>        -0.1469
     28 C21         3.1912   -2.9546    3.1613 C.ar      1 <0>        -0.0939
     29 C22         3.6035   -2.0603    4.1338 C.ar      1 <0>        -0.1288
     30 C23         3.1055   -0.7617    4.0488 C.ar      1 <0>         0.1077
     31 N3          3.3005    0.3457    4.8231 N.pl3     1 <0>        -0.5620
     32 H2          3.8632    0.3828    5.6124 H         1 <0>         0.4245
     33 C24         1.6672    2.7909    6.1429 C.3       1 <0>        -0.1545
     34 C25         5.7271    4.8260    5.2554 C.3       1 <0>         0.1104
     35 C26         6.7329    4.3364    4.2115 C.3       1 <0>        -0.1517
     36 C27         8.1491    4.7117    4.6526 C.3       1 <0>         0.1092
     37 N4          9.1121    4.2429    3.6531 N.pl3     1 <0>        -0.4598
     38 C28         9.5583    4.9424    2.5645 C.2       1 <0>        -0.0580
     39 C29        10.4284    4.1434    1.9178 C.2       1 <0>        -0.0282
     40 N5         10.5112    2.9876    2.5932 N.2       1 <0>        -0.4943
     41 C30         9.7299    3.0421    3.6370 C.2       1 <0>         0.1834
     42 H3         -2.2975    0.4302    0.5915 H         1 <0>         0.0644
     43 H4         -2.5002    0.9344   -1.1035 H         1 <0>         0.0661
     44 H5         -2.1467   -0.7668   -0.7172 H         1 <0>         0.0745
     45 H6         -0.1207    0.3968   -1.5480 H         1 <0>         0.0549
     46 H7          0.0820   -0.1074    0.1470 H         1 <0>         0.0503
     47 H8          3.5762    2.7231    2.1628 H         1 <0>         0.1141
     48 H9          4.7648    3.4264    0.1269 H         1 <0>         0.1226
     49 H10         3.6066    3.4188   -2.0447 H         1 <0>         0.1315
     50 H11         1.2415    3.0751   -4.4585 H         1 <0>         0.1019
     51 H12         2.2088    4.1512   -3.4219 H         1 <0>         0.0564
     52 H13         2.7329    2.4724   -3.6965 H         1 <0>         0.0550
     53 H14         0.2371    3.9041    2.5602 H         1 <0>         0.1162
     54 H15        -0.0905    2.8677    3.9713 H         1 <0>         0.0886
     55 H16         3.4433    6.3144    4.5985 H         1 <0>         0.1149
     56 H17         4.2382    5.6776    3.1461 H         1 <0>         0.1162
     57 H18         1.1417   -1.0475    1.2382 H         1 <0>         0.1253
     58 H19         2.0362   -3.3337    1.4131 H         1 <0>         0.1190
     59 H20         3.5583   -3.9697    3.1969 H         1 <0>         0.1227
     60 H21         4.2801   -2.3553    4.9222 H         1 <0>         0.1292
     61 H22         0.6757    2.3994    5.9154 H         1 <0>         0.0851
     62 H23         2.1436    2.1602    6.8934 H         1 <0>         0.0826
     63 H24         1.5773    3.8073    6.5264 H         1 <0>         0.0744
     64 H25         5.8024    5.9091    5.3525 H         1 <0>         0.0908
     65 H26         5.9441    4.3591    6.2161 H         1 <0>         0.1002
     66 H27         6.6576    3.2534    4.1144 H         1 <0>         0.0779
     67 H28         6.5158    4.8033    3.2508 H         1 <0>         0.0741
     68 H29         8.2244    5.7947    4.7497 H         1 <0>         0.0955
     69 H30         8.3661    4.2448    5.6133 H         1 <0>         0.0982
     70 H31         9.2688    5.9430    2.2793 H         1 <0>         0.1733
     71 H32        10.9654    4.3901    1.0138 H         1 <0>         0.1692
     72 H33         9.5973    2.2562    4.3658 H         1 <0>         0.2023
@<TRIPOS>BOND
     1    1    2 1
     2    1   42 1
     3    1   43 1
     4    1   44 1
     5    2    3 1
     6    2   45 1
     7    2   46 1
     8    3    4 1
     9    4    9 ar
    10    4    5 ar
    11    5    6 ar
    12    5   12 1
    13    6    7 ar
    14    6   47 1
    15    7    8 ar
    16    7   48 1
    17    8    9 ar
    18    8   49 1
    19    9   10 1
    20   10   11 1
    21   11   50 1
    22   11   51 1
    23   11   52 1
    24   12   13 1
    25   12   24 1
    26   12   14 1
    27   14   15 1
    28   14   53 1
    29   14   54 1
    30   15   22 1
    31   15   16 am
    32   16   17 2
    33   16   18 1
    34   18   19 1
    35   18   55 1
    36   18   56 1
    37   19   20 am
    38   19   34 1
    39   20   21 2
    40   20   22 1
    41   22   23 1
    42   22   33 1
    43   23   31 1
    44   23   24 2
    45   24   25 1
    46   25   30 ar
    47   25   26 ar
    48   26   27 ar
    49   26   57 1
    50   27   28 ar
    51   27   58 1
    52   28   29 ar
    53   28   59 1
    54   29   30 ar
    55   29   60 1
    56   30   31 1
    57   31   32 1
    58   33   61 1
    59   33   62 1
    60   33   63 1
    61   34   35 1
    62   34   64 1
    63   34   65 1
    64   35   36 1
    65   35   66 1
    66   35   67 1
    67   36   37 1
    68   36   68 1
    69   36   69 1
    70   37   41 1
    71   37   38 1
    72   38   39 2
    73   38   70 1
    74   39   40 1
    75   39   71 1
    76   40   41 2
    77   41   72 1
@<TRIPOS>MOLECULE
ZINC36017118
   79    81     0     0     0
SMALL
USER_CHARGES

@<TRIPOS>ATOM
      1 C1          0.2821    1.6454    0.0624 C.3       1 <0>        -0.1697
      2 C2          0.1481    0.1213    0.0477 C.3       1 <0>         0.0927
      3 N1          0.7640   -0.4113   -1.1701 N.am      1 <0>        -0.5278
      4 C3         -0.0166   -0.5422   -2.2829 C.2       1 <0>         0.2314
      5 C4          0.4905   -1.0267   -3.4370 C.2       1 <0>        -0.2648
      6 C5          1.9540   -1.4190   -3.4545 C.3       1 <0>         0.2511
      7 H1          2.0168   -2.4702   -3.7359 H         1 <0>         0.0974
      8 N2          2.7082   -1.2384   -2.2026 N.am      1 <0>        -0.7116
      9 C6          2.0621   -0.7373   -1.1312 C.2       1 <0>         0.7063
     10 O1          2.6767   -0.5808   -0.0942 O.2       1 <0>        -0.5574
     11 C7          2.6382   -0.6132   -4.5285 C.ar      1 <0>        -0.0367
     12 C8          3.0123    0.6931   -4.2779 C.ar      1 <0>        -0.1570
     13 C9          3.6425    1.4373   -5.2653 C.ar      1 <0>         0.1694
     14 C10         3.8966    0.8689   -6.5040 C.ar      1 <0>        -0.2908
     15 C11         3.5203   -0.4419   -6.7530 C.ar      1 <0>         0.1702
     16 C12         2.8955   -1.1837   -5.7604 C.ar      1 <0>        -0.1750
     17 O2          3.7678   -1.0017   -7.9664 O.3       1 <0>        -0.3117
     18 C13         4.4190   -0.1814   -8.9385 C.3       1 <0>         0.0261
     19 O3          4.0097    2.7221   -5.0184 O.3       1 <0>        -0.3117
     20 C14         4.6540    3.4283   -6.0806 C.3       1 <0>         0.0262
     21 C15        -0.3172   -1.1637   -4.5902 C.2       1 <0>         0.5473
     22 O4         -0.7635   -2.2541   -4.8943 O.2       1 <0>        -0.4889
     23 O5         -0.5926   -0.0852   -5.3530 O.3       1 <0>        -0.3435
     24 C16        -1.4144   -0.2967   -6.5028 C.3       1 <0>         0.0589
     25 C17        -1.6155    1.0305   -7.2370 C.3       1 <0>        -0.1512
     26 C18        -1.4677   -0.1400   -2.2220 C.3       1 <0>         0.0757
     27 N3         -2.1901   -1.0480   -1.3211 N.3       1 <0>        -0.5305
     28 C19        -2.2208   -2.4130   -1.8630 C.3       1 <0>         0.0373
     29 C20        -2.8194   -3.3606   -0.8180 C.3       1 <0>         0.1389
     30 N4         -4.1248   -2.8286   -0.3982 N.am      1 <0>        -0.6329
     31 C21        -4.1987   -1.4230    0.0287 C.3       1 <0>         0.1179
     32 C22        -3.5458   -0.5518   -1.0497 C.3       1 <0>         0.0385
     33 C23        -5.2239   -3.6085   -0.4042 C.2       1 <0>         0.7110
     34 O6         -5.1290   -4.7908   -0.6713 O.2       1 <0>        -0.5799
     35 N5         -6.4284   -3.0777   -0.1141 N.am      1 <0>        -0.7403
     36 C24        -7.6360   -3.9002   -0.2203 C.3       1 <0>         0.1854
     37 C25        -7.5223   -5.0976    0.7253 C.3       1 <0>        -0.1655
     38 C26        -8.8584   -3.0630    0.1616 C.3       1 <0>        -0.1555
     39 C27        -7.7886   -4.3989   -1.6587 C.3       1 <0>        -0.1629
     40 H2          1.3374    1.9175    0.0401 H         1 <0>         0.0617
     41 H3         -0.2193    2.0627   -0.8108 H         1 <0>         0.0550
     42 H4         -0.1761    2.0417    0.9686 H         1 <0>         0.0750
     43 H5          0.6495   -0.2960    0.9209 H         1 <0>         0.0961
     44 H6         -0.9072   -0.1508    0.0701 H         1 <0>         0.1202
     45 H7          3.6484   -1.4714   -2.1512 H         1 <0>         0.4343
     46 H8          2.8137    1.1356   -3.3129 H         1 <0>         0.1267
     47 H9          4.3866    1.4465   -7.2738 H         1 <0>         0.1354
     48 H10         2.6061   -2.2064   -5.9524 H         1 <0>         0.1334
     49 H11         3.8071    0.6976   -9.1408 H         1 <0>         0.0555
     50 H12         5.3907    0.1322   -8.5571 H         1 <0>         0.0560
     51 H13         4.5559   -0.7485   -9.8593 H         1 <0>         0.1036
     52 H14         5.5717    2.9095   -6.3577 H         1 <0>         0.0557
     53 H15         3.9883    3.4745   -6.9424 H         1 <0>         0.0556
     54 H16         4.8934    4.4396   -5.7519 H         1 <0>         0.1033
     55 H17        -0.9304   -1.0107   -7.1690 H         1 <0>         0.0697
     56 H18        -2.3821   -0.6894   -6.1905 H         1 <0>         0.0659
     57 H19        -2.0996    1.7446   -6.5707 H         1 <0>         0.0658
     58 H20        -0.6479    1.4232   -7.5493 H         1 <0>         0.0661
     59 H21        -2.2424    0.8693   -8.1140 H         1 <0>         0.0799
     60 H22        -1.5463    0.8810   -1.8486 H         1 <0>         0.1101
     61 H23        -1.9025   -0.1964   -3.2199 H         1 <0>         0.0646
     62 H24        -2.8328   -2.4327   -2.7648 H         1 <0>         0.0474
     63 H25        -1.2066   -2.7315   -2.1042 H         1 <0>         0.0919
     64 H26        -2.9507   -4.3508   -1.2542 H         1 <0>         0.0999
     65 H27        -2.1548   -3.4221    0.0438 H         1 <0>         0.0736
     66 H28        -5.2419   -1.1323    0.1523 H         1 <0>         0.0820
     67 H29        -3.6667   -1.2984    0.9718 H         1 <0>         0.0810
     68 H30        -3.4926    0.4796   -0.7010 H         1 <0>         0.0939
     69 H31        -4.1394   -0.5973   -1.9627 H         1 <0>         0.0463
     70 H32        -6.4956   -2.1512    0.1650 H         1 <0>         0.3923
     71 H33        -7.4136   -4.7424    1.7500 H         1 <0>         0.0518
     72 H34        -8.4209   -5.7096    0.6463 H         1 <0>         0.0612
     73 H35        -6.6515   -5.6940    0.4532 H         1 <0>         0.0831
     74 H36        -8.9394   -2.2100   -0.5120 H         1 <0>         0.0607
     75 H37        -9.7570   -3.6750    0.0826 H         1 <0>         0.0756
     76 H38        -8.7497   -2.7078    1.1864 H         1 <0>         0.0617
     77 H39        -6.9178   -4.9953   -1.9307 H         1 <0>         0.0768
     78 H40        -8.6872   -5.0108   -1.7377 H         1 <0>         0.0635
     79 H41        -7.8696   -3.5458   -2.3323 H         1 <0>         0.0514
@<TRIPOS>BOND
     1    1    2 1
     2    1   40 1
     3    1   41 1
     4    1   42 1
     5    2    3 1
     6    2   43 1
     7    2   44 1
     8    3    9 am
     9    3    4 1
    10    4    5 2
    11    4   26 1
    12    5    6 1
    13    5   21 1
    14    6    7 1
    15    6    8 1
    16    6   11 1
    17    8    9 am
    18    8   45 1
    19    9   10 2
    20   11   16 ar
    21   11   12 ar
    22   12   13 ar
    23   12   46 1
    24   13   14 ar
    25   13   19 1
    26   14   15 ar
    27   14   47 1
    28   15   16 ar
    29   15   17 1
    30   16   48 1
    31   17   18 1
    32   18   49 1
    33   18   50 1
    34   18   51 1
    35   19   20 1
    36   20   52 1
    37   20   53 1
    38   20   54 1
    39   21   22 2
    40   21   23 1
    41   23   24 1
    42   24   25 1
    43   24   55 1
    44   24   56 1
    45   25   57 1
    46   25   58 1
    47   25   59 1
    48   26   27 1
    49   26   60 1
    50   26   61 1
    51   27   32 1
    52   27   28 1
    53   28   29 1
    54   28   62 1
    55   28   63 1
    56   29   30 1
    57   29   64 1
    58   29   65 1
    59   30   31 1
    60   30   33 am
    61   31   32 1
    62   31   66 1
    63   31   67 1
    64   32   68 1
    65   32   69 1
    66   33   34 2
    67   33   35 am
    68   35   36 1
    69   35   70 1
    70   36   37 1
    71   36   38 1
    72   36   39 1
    73   37   71 1
    74   37   72 1
    75   37   73 1
    76   38   74 1
    77   38   75 1
    78   38   76 1
    79   39   77 1
    80   39   78 1
    81   39   79 1
@<TRIPOS>MOLECULE
ZINC00906219
   75    79     0     0     0
SMALL
USER_CHARGES

@<TRIPOS>ATOM
      1 C1          0.2572    1.8491    0.0634 C.3       1 <0>         0.0232
      2 O1          0.5403    0.4592    0.2369 O.3       1 <0>        -0.3037
      3 C2          0.9929   -0.2192   -0.8514 C.ar      1 <0>         0.1222
      4 C3          1.1661    0.4399   -2.0579 C.ar      1 <0>        -0.1921
      5 C4          1.6267   -0.2511   -3.1631 C.ar      1 <0>        -0.0547
      6 C5          1.9149   -1.5999   -3.0682 C.ar      1 <0>        -0.1336
      7 C6          1.7439   -2.2636   -1.8676 C.ar      1 <0>        -0.0837
      8 C7          1.2885   -1.5755   -0.7544 C.ar      1 <0>         0.0806
      9 O2          1.1254   -2.2256    0.4290 O.3       1 <0>        -0.4810
     10 C8          2.4163   -2.3485   -4.2763 C.3       1 <0>         0.1830
     11 H1          2.6283   -3.3817   -4.0013 H         1 <0>         0.1165
     12 C9          1.3651   -2.3215   -5.3558 C.2       1 <0>         0.5160
     13 O3          1.6141   -1.8213   -6.4322 O.2       1 <0>        -0.5162
     14 N1          0.1484   -2.8533   -5.1251 N.am      1 <0>        -0.7199
     15 C10        -0.8735   -2.8271   -6.1745 C.3       1 <0>         0.1476
     16 C11        -1.6127   -1.4881   -6.1332 C.3       1 <0>        -0.1254
     17 C12        -2.6799   -1.4607   -7.2292 C.3       1 <0>        -0.1177
     18 C13        -3.6752   -2.6000   -7.0005 C.3       1 <0>        -0.1219
     19 C14        -2.9360   -3.9390   -7.0418 C.3       1 <0>        -0.1165
     20 C15        -1.8688   -3.9664   -5.9458 C.3       1 <0>        -0.1262
     21 N2          3.6405   -1.7136   -4.7707 N.am      1 <0>        -0.5490
     22 C16         4.0934   -0.5221   -4.1929 C.ar      1 <0>         0.1134
     23 C17         4.0338    0.6657   -4.9124 C.ar      1 <0>        -0.0916
     24 C18         4.4797    1.8453   -4.3465 C.ar      1 <0>        -0.1154
     25 C19         4.9874    1.8519   -3.0632 C.ar      1 <0>        -0.0539
     26 C20         5.0517    0.6641   -2.3320 C.ar      1 <0>        -0.1102
     27 C21         4.5961   -0.5256   -2.9015 C.ar      1 <0>        -0.0412
     28 C22         5.5950    0.6679   -0.9581 C.2       1 <0>         0.5045
     29 O4          5.6499   -0.3666   -0.3238 O.2       1 <0>        -0.4927
     30 O5          6.0294    1.8187   -0.4088 O.3       1 <0>        -0.3490
     31 C23         6.5422    1.7487    0.9232 C.3       1 <0>         0.0341
     32 C24         4.3306   -2.2771   -5.7821 C.2       1 <0>         0.5188
     33 O6          3.9867   -3.3521   -6.2260 O.2       1 <0>        -0.4907
     34 C25         5.5295   -1.5713   -6.3613 C.3       1 <0>         0.1216
     35 N3          6.0448   -2.3375   -7.4987 N.pl3     1 <0>        -0.3847
     36 C26         6.9896   -3.3350   -7.4582 C.ar      1 <0>         0.0976
     37 C27         7.7286   -3.9254   -6.4386 C.ar      1 <0>        -0.1231
     38 C28         8.6147   -4.9237   -6.7321 C.ar      1 <0>        -0.0640
     39 C29         8.7850   -5.3551   -8.0414 C.ar      1 <0>        -0.1352
     40 C30         8.0723   -4.7924   -9.0594 C.ar      1 <0>        -0.0328
     41 C31         7.1570   -3.7673   -8.7853 C.ar      1 <0>        -0.0160
     42 N4          6.3310   -3.0371   -9.5608 N.2       1 <0>        -0.2136
     43 N5          5.6666   -2.2016   -8.8428 N.2       1 <0>         0.0079
     44 H2          1.1632    2.3681   -0.2494 H         1 <0>         0.0574
     45 H3         -0.5127    1.9707   -0.6985 H         1 <0>         0.0579
     46 H4         -0.0948    2.2686    1.0059 H         1 <0>         0.1044
     47 H5          0.9409    1.4933   -2.1350 H         1 <0>         0.1365
     48 H6          1.7612    0.2637   -4.1029 H         1 <0>         0.1299
     49 H7          1.9695   -3.3174   -1.7962 H         1 <0>         0.1419
     50 H8          0.2466   -2.6108    0.5482 H         1 <0>         0.3884
     51 H9         -0.0507   -3.2533   -4.2641 H         1 <0>         0.3991
     52 H10        -0.3981   -2.9498   -7.1477 H         1 <0>         0.0889
     53 H11        -2.0881   -1.3654   -5.1601 H         1 <0>         0.0624
     54 H12        -0.9036   -0.6764   -6.2962 H         1 <0>         0.0651
     55 H13        -3.2065   -0.5069   -7.1998 H         1 <0>         0.0649
     56 H14        -2.2045   -1.5835   -8.2024 H         1 <0>         0.0648
     57 H15        -4.1506   -2.4773   -6.0274 H         1 <0>         0.0623
     58 H16        -4.4355   -2.5805   -7.7814 H         1 <0>         0.0648
     59 H17        -3.6450   -4.7506   -6.8789 H         1 <0>         0.0683
     60 H18        -2.4606   -4.0617   -8.0150 H         1 <0>         0.0658
     61 H19        -1.3421   -4.9202   -5.9752 H         1 <0>         0.0692
     62 H20        -2.3442   -3.8436   -4.9726 H         1 <0>         0.0678
     63 H21         3.6379    0.6669   -5.9172 H         1 <0>         0.1411
     64 H22         4.4311    2.7649   -4.9107 H         1 <0>         0.1432
     65 H23         5.3351    2.7756   -2.6247 H         1 <0>         0.1451
     66 H24         4.6392   -1.4468   -2.3393 H         1 <0>         0.1433
     67 H25         5.7653    1.3795    1.5927 H         1 <0>         0.0631
     68 H26         7.3959    1.0714    0.9488 H         1 <0>         0.0633
     69 H27         6.8567    2.7418    1.2441 H         1 <0>         0.1058
     70 H28         5.2384   -0.5756   -6.6959 H         1 <0>         0.1336
     71 H29         6.3044   -1.4865   -5.5994 H         1 <0>         0.1270
     72 H30         7.6030   -3.5957   -5.4179 H         1 <0>         0.1277
     73 H31         9.1877   -5.3810   -5.9391 H         1 <0>         0.1381
     74 H32         9.4899   -6.1446   -8.2560 H         1 <0>         0.1381
     75 H33         8.2134   -5.1356  -10.0737 H         1 <0>         0.1395
@<TRIPOS>BOND
     1    1    2 1
     2    1   44 1
     3    1   45 1
     4    1   46 1
     5    2    3 1
     6    3    8 ar
     7    3    4 ar
     8    4    5 ar
     9    4   47 1
    10    5    6 ar
    11    5   48 1
    12    6    7 ar
    13    6   10 1
    14    7    8 ar
    15    7   49 1
    16    8    9 1
    17    9   50 1
    18   10   11 1
    19   10   12 1
    20   10   21 1
    21   12   13 2
    22   12   14 am
    23   14   15 1
    24   14   51 1
    25   15   20 1
    26   15   16 1
    27   15   52 1
    28   16   17 1
    29   16   53 1
    30   16   54 1
    31   17   18 1
    32   17   55 1
    33   17   56 1
    34   18   19 1
    35   18   57 1
    36   18   58 1
    37   19   20 1
    38   19   59 1
    39   19   60 1
    40   20   61 1
    41   20   62 1
    42   21   22 1
    43   21   32 am
    44   22   27 ar
    45   22   23 ar
    46   23   24 ar
    47   23   63 1
    48   24   25 ar
    49   24   64 1
    50   25   26 ar
    51   25   65 1
    52   26   27 ar
    53   26   28 1
    54   27   66 1
    55   28   29 2
    56   28   30 1
    57   30   31 1
    58   31   67 1
    59   31   68 1
    60   31   69 1
    61   32   33 2
    62   32   34 1
    63   34   35 1
    64   34   70 1
    65   34   71 1
    66   35   43 1
    67   35   36 1
    68   36   41 ar
    69   36   37 ar
    70   37   38 ar
    71   37   72 1
    72   38   39 ar
    73   38   73 1
    74   39   40 ar
    75   39   74 1
    76   40   41 ar
    77   40   75 1
    78   41   42 1
    79   42   43 2
@<TRIPOS>MOLECULE
ZINC03283623
   68    72     0     0     0
SMALL
USER_CHARGES

@<TRIPOS>ATOM
      1 C1         -1.3413    1.1717   -0.1600 C.3       1 <0>        -0.1168
      2 C2         -1.1562   -0.3238   -0.1744 C.ar      1 <0>        -0.0795
      3 C3         -1.9804   -1.1123   -0.9579 C.ar      1 <0>        -0.1082
      4 C4         -1.8165   -2.4816   -0.9758 C.ar      1 <0>        -0.1255
      5 C5         -0.8156   -3.0720   -0.2012 C.ar      1 <0>         0.0860
      6 C6          0.0126   -2.2705    0.5866 C.ar      1 <0>        -0.0599
      7 C7         -0.1593   -0.9015    0.5913 C.ar      1 <0>        -0.1116
      8 C8          1.0951   -2.8986    1.4261 C.3       1 <0>        -0.1113
      9 N1         -0.6477   -4.4310   -0.2139 N.2       1 <0>        -0.4554
     10 C9         -0.5706   -5.0720   -1.3566 C.2       1 <0>         0.4071
     11 N2         -0.5107   -6.4336   -1.5668 N.am      1 <0>        -0.5401
     12 C10        -0.4347   -6.9622   -2.7761 C.2       1 <0>         0.5310
     13 O1         -0.3827   -8.1607   -2.9533 O.2       1 <0>        -0.4694
     14 C11        -0.4170   -5.9734   -3.9308 C.3       1 <0>        -0.0714
     15 H1         -1.2823   -6.1085   -4.5798 H         1 <0>         0.1628
     16 S1         -0.5266   -4.3860   -3.0056 S.3       1 <0>        -0.1107
     17 C12         0.8872   -6.0710   -4.7247 C.3       1 <0>        -0.1188
     18 C13         0.8126   -5.1655   -5.9269 C.2       1 <0>         0.5182
     19 O2         -0.1856   -4.5067   -6.1289 O.2       1 <0>        -0.5054
     20 N3          1.8550   -5.0875   -6.7776 N.am      1 <0>        -0.6671
     21 C14         1.8240   -4.1771   -7.8420 C.ar      1 <0>         0.1457
     22 C15         1.1812   -2.9555   -7.6921 C.ar      1 <0>        -0.1125
     23 C16         1.1496   -2.0563   -8.7409 C.ar      1 <0>        -0.1526
     24 C17         1.7593   -2.3718   -9.9444 C.ar      1 <0>         0.0890
     25 C18         2.4043   -3.5953  -10.0978 C.ar      1 <0>         0.1189
     26 C19         2.4407   -4.4940   -9.0446 C.ar      1 <0>        -0.1971
     27 O3          3.0030   -3.9059  -11.2787 O.3       1 <0>        -0.3027
     28 C20         3.6461   -5.1791  -11.3649 C.3       1 <0>         0.0250
     29 O4          1.7270   -1.4857  -10.9764 O.3       1 <0>        -0.3061
     30 C21         1.0472   -0.2495  -10.7489 C.3       1 <0>         0.0252
     31 C22        -0.5316   -7.3277   -0.4065 C.3       1 <0>         0.1452
     32 C23        -1.9570   -7.6871   -0.0748 C.ar      1 <0>        -0.1115
     33 C24        -2.6806   -6.9002    0.8020 C.ar      1 <0>        -0.0786
     34 C25        -3.9886   -7.2255    1.1089 C.ar      1 <0>        -0.1049
     35 C26        -4.5776   -8.3422    0.5384 C.ar      1 <0>         0.0443
     36 C27        -3.8487   -9.1348   -0.3448 C.ar      1 <0>         0.0271
     37 C28        -2.5401   -8.7995   -0.6523 C.ar      1 <0>        -0.0767
     38 O5         -4.6423  -10.1628   -0.7651 O.3       1 <0>        -0.3070
     39 C29        -5.7261  -10.2235    0.1810 C.3       1 <0>         0.2126
     40 O6         -5.8279   -8.8735    0.6713 O.3       1 <0>        -0.3076
     41 H2         -0.7304    1.6210   -0.9430 H         1 <0>         0.0723
     42 H3         -2.3903    1.4097   -0.3361 H         1 <0>         0.0678
     43 H4         -1.0371    1.5662    0.8095 H         1 <0>         0.0677
     44 H5         -2.7540   -0.6544   -1.5565 H         1 <0>         0.1262
     45 H6         -2.4609   -3.0959   -1.5872 H         1 <0>         0.1272
     46 H7          0.4833   -0.2799    1.1971 H         1 <0>         0.1279
     47 H8          2.0152   -2.9612    0.8451 H         1 <0>         0.0676
     48 H9          1.2664   -2.2892    2.3134 H         1 <0>         0.0670
     49 H10         0.7865   -3.8998    1.7270 H         1 <0>         0.0757
     50 H11         1.7212   -5.7671   -4.0921 H         1 <0>         0.1162
     51 H12         1.0365   -7.0996   -5.0532 H         1 <0>         0.1275
     52 H13         2.6268   -5.6618   -6.6530 H         1 <0>         0.4129
     53 H14         0.7052   -2.7080   -6.7548 H         1 <0>         0.1407
     54 H15         0.6489   -1.1068   -8.6224 H         1 <0>         0.1402
     55 H16         2.9446   -5.4422   -9.1602 H         1 <0>         0.1393
     56 H17         4.4326   -5.2405  -10.6127 H         1 <0>         0.0552
     57 H18         2.9146   -5.9682  -11.1909 H         1 <0>         0.0552
     58 H19         4.0818   -5.2997  -12.3567 H         1 <0>         0.1024
     59 H20         1.0960    0.3631  -11.6492 H         1 <0>         0.1015
     60 H21         0.0046   -0.4485  -10.5010 H         1 <0>         0.0557
     61 H22         1.5224    0.2799   -9.9230 H         1 <0>         0.0555
     62 H23         0.0277   -8.2346   -0.6365 H         1 <0>         0.1084
     63 H24        -0.0753   -6.8262    0.4470 H         1 <0>         0.1144
     64 H25        -2.2228   -6.0298    1.2482 H         1 <0>         0.1459
     65 H26        -4.5515   -6.6090    1.7942 H         1 <0>         0.1383
     66 H27        -1.9739   -9.4099   -1.3403 H         1 <0>         0.1412
     67 H28        -6.6503  -10.5220   -0.3139 H         1 <0>         0.1337
     68 H29        -5.4869  -10.9092    0.9939 H         1 <0>         0.0868
@<TRIPOS>BOND
     1    1    2 1
     2    1   41 1
     3    1   42 1
     4    1   43 1
     5    2    7 ar
     6    2    3 ar
     7    3    4 ar
     8    3   44 1
     9    4    5 ar
    10    4   45 1
    11    5    6 ar
    12    5    9 1
    13    6    7 ar
    14    6    8 1
    15    7   46 1
    16    8   47 1
    17    8   48 1
    18    8   49 1
    19    9   10 2
    20   10   16 1
    21   10   11 1
    22   11   12 am
    23   11   31 1
    24   12   13 2
    25   12   14 1
    26   14   15 1
    27   14   16 1
    28   14   17 1
    29   17   18 1
    30   17   50 1
    31   17   51 1
    32   18   19 2
    33   18   20 am
    34   20   21 1
    35   20   52 1
    36   21   26 ar
    37   21   22 ar
    38   22   23 ar
    39   22   53 1
    40   23   24 ar
    41   23   54 1
    42   24   25 ar
    43   24   29 1
    44   25   26 ar
    45   25   27 1
    46   26   55 1
    47   27   28 1
    48   28   56 1
    49   28   57 1
    50   28   58 1
    51   29   30 1
    52   30   59 1
    53   30   60 1
    54   30   61 1
    55   31   32 1
    56   31   62 1
    57   31   63 1
    58   32   37 ar
    59   32   33 ar
    60   33   34 ar
    61   33   64 1
    62   34   35 ar
    63   34   65 1
    64   35   40 1
    65   35   36 ar
    66   36   37 ar
    67   36   38 1
    68   37   66 1
    69   38   39 1
    70   39   40 1
    71   39   67 1
    72   39   68 1
@<TRIPOS>MOLECULE
ZINC17079625
   53    56     0     0     0
SMALL
USER_CHARGES
(1S,4R,5R,6R)-6-[[3-(cyclopentylcarbamoyl)-1-ethyl-pyrazol-4-yl]carbamoyl]-7-oxabicyclo[2.2.1]heptane-5-carboxylic acid
@<TRIPOS>ATOM
      1 C1         -7.5868    7.8835   -2.2895 C.3       1 <0>        -0.1662
      2 C2         -6.0788    8.1423   -2.2826 C.3       1 <0>         0.1199
      3 N1         -5.4716    7.4610   -1.1366 N.pl3     1 <0>        -0.2734
      4 C3         -4.4455    6.5752   -1.2140 C.2       1 <0>        -0.0369
      5 C4         -4.1726    6.1691    0.0544 C.2       1 <0>         0.0975
      6 C5         -5.0978    6.8602    0.8789 C.2       1 <0>        -0.0490
      7 N2         -5.8335    7.6152    0.0861 N.2       1 <0>        -0.2487
      8 C6         -5.2126    6.7567    2.3459 C.2       1 <0>         0.6121
      9 O1         -4.4668    6.0216    2.9637 O.2       1 <0>        -0.5364
     10 N3         -6.1443    7.4769    3.0014 N.am      1 <0>        -0.7132
     11 C7         -6.2584    7.3741    4.4583 C.3       1 <0>         0.1400
     12 C8         -7.1895    6.2029    4.8341 C.3       1 <0>        -0.1355
     13 C9         -7.9664    6.7184    6.0718 C.3       1 <0>        -0.1243
     14 C10        -8.2046    8.2102    5.7299 C.3       1 <0>        -0.1238
     15 C11        -6.9032    8.6499    5.0278 C.3       1 <0>        -0.1317
     16 N4         -3.1884    5.2552    0.4615 N.am      1 <0>        -0.6382
     17 C12        -2.3865    4.6762   -0.4540 C.2       1 <0>         0.5329
     18 O2         -2.5155    4.9449   -1.6298 O.2       1 <0>        -0.5238
     19 C13        -1.3296    3.6949   -0.0169 C.3       1 <0>        -0.1289
     20 H1         -0.6589    4.1509    0.7113 H         1 <0>         0.1326
     21 C14        -1.9774    2.4018    0.5631 C.3       1 <0>         0.0722
     22 H2         -2.8594    2.5589    1.1839 H         1 <0>         0.1250
     23 C15        -0.8025    1.6176    1.2311 C.3       1 <0>        -0.1401
     24 C16        -0.0127    1.0858    0.0080 C.3       1 <0>        -0.1499
     25 C17        -0.8299    1.6335   -1.2004 C.3       1 <0>         0.0886
     26 H3         -0.6812    1.1061   -2.1426 H         1 <0>         0.1309
     27 C18        -0.5356    3.1632   -1.2373 C.3       1 <0>        -0.1435
     28 H4         -0.9036    3.6050   -2.1633 H         1 <0>         0.1017
     29 C19         0.9387    3.4273   -1.0712 C.2       1 <0>         0.4787
     30 O3          1.3350    4.0682   -0.1266 O.co2     1 <0>        -0.6362
     31 O4         -2.1904    1.6173   -0.6561 O.3       1 <0>        -0.3796
     32 H5         -7.7711    6.8118   -2.3644 H         1 <0>         0.0637
     33 H6         -8.0249    8.2639   -1.3667 H         1 <0>         0.0715
     34 H7         -8.0386    8.3904   -3.1421 H         1 <0>         0.0789
     35 H8         -5.8945    9.2140   -2.2077 H         1 <0>         0.0935
     36 H9         -5.6407    7.7619   -3.2054 H         1 <0>         0.1063
     37 H10        -3.9410    6.2542   -2.1134 H         1 <0>         0.2055
     38 H11        -6.7394    8.0633    2.5085 H         1 <0>         0.4054
     39 H12        -5.2732    7.2245    4.9000 H         1 <0>         0.0939
     40 H13        -7.8764    5.9842    4.0166 H         1 <0>         0.0700
     41 H14        -6.6058    5.3186    5.0902 H         1 <0>         0.0731
     42 H15        -7.3630    6.6206    6.9743 H         1 <0>         0.0693
     43 H16        -8.9141    6.1917    6.1837 H         1 <0>         0.0676
     44 H17        -8.3619    8.7897    6.6396 H         1 <0>         0.0671
     45 H18        -9.0559    8.3184    5.0578 H         1 <0>         0.0662
     46 H19        -6.2313    9.1189    5.7466 H         1 <0>         0.0753
     47 H20        -7.1305    9.3458    4.2203 H         1 <0>         0.0715
     48 H21        -3.0853    5.0403    1.4017 H         1 <0>         0.4226
     49 H22        -1.1812    0.7926    1.8346 H         1 <0>         0.0698
     50 H23        -0.1825    2.2836    1.8313 H         1 <0>         0.0815
     51 H24         0.0021   -0.0041    0.0020 H         1 <0>         0.0648
     52 H25         1.0018    1.4843    0.0005 H         1 <0>         0.0923
     53 O5          1.8117    2.9507   -1.9725 O.co2     1 <0>        -0.7625
@<TRIPOS>BOND
     1    1    2 1
     2    1   32 1
     3    1   33 1
     4    1   34 1
     5    2    3 1
     6    2   35 1
     7    2   36 1
     8    3    7 1
     9    3    4 1
    10    4    5 2
    11    4   37 1
    12    5    6 1
    13    5   16 1
    14    6    7 2
    15    6    8 1
    16    8    9 2
    17    8   10 am
    18   10   11 1
    19   10   38 1
    20   11   15 1
    21   11   12 1
    22   11   39 1
    23   12   13 1
    24   12   40 1
    25   12   41 1
    26   13   14 1
    27   13   42 1
    28   13   43 1
    29   14   15 1
    30   14   44 1
    31   14   45 1
    32   15   46 1
    33   15   47 1
    34   16   17 am
    35   16   48 1
    36   17   18 2
    37   17   19 1
    38   19   20 1
    39   19   27 1
    40   19   21 1
    41   21   22 1
    42   21   31 1
    43   21   23 1
    44   23   24 1
    45   23   49 1
    46   23   50 1
    47   24   25 1
    48   24   51 1
    49   24   52 1
    50   25   26 1
    51   25   27 1
    52   25   31 1
    53   27   28 1
    54   27   29 1
    55   29   30 2
    56   29   53 1
@<TRIPOS>MOLECULE
ZINC40752771
   53    55     0     0     0
SMALL
USER_CHARGES

@<TRIPOS>ATOM
      1 C1         -4.5659    2.6095   -2.3139 C.3       1 <0>        -0.1519
      2 C2         -4.0469    2.0206   -1.0006 C.3       1 <0>         0.0590
      3 O1         -4.1920    0.5992   -1.0257 O.3       1 <0>        -0.3528
      4 C3         -3.7807   -0.0747    0.0599 C.2       1 <0>         0.4647
      5 O2         -3.3129    0.5225    1.0003 O.2       1 <0>        -0.5049
      6 C4         -3.9023   -1.5760    0.1057 C.3       1 <0>        -0.0720
      7 C5         -5.3728   -1.9732   -0.0425 C.3       1 <0>        -0.1276
      8 C6         -5.4888   -3.5007   -0.0302 C.3       1 <0>         0.1519
      9 N1         -4.8449   -4.0140    1.1865 N.pl3     1 <0>        -0.6527
     10 C7         -3.4588   -3.6192    1.4726 C.3       1 <0>         0.1499
     11 C8         -3.3656   -2.0904    1.4434 C.3       1 <0>        -0.1206
     12 C9         -5.5338   -4.8567    2.0506 C.ar      1 <0>         0.3363
     13 C10        -5.5080   -6.2398    1.8626 C.ar      1 <0>         0.1249
     14 C11        -6.2167   -7.0403    2.7597 C.ar      1 <0>         0.3639
     15 N2         -6.8854   -6.4591    3.7531 N.ar      1 <0>        -0.4914
     16 C12        -6.8839   -5.1492    3.8951 C.ar      1 <0>         0.2487
     17 N3         -6.2239   -4.3580    3.0734 N.ar      1 <0>        -0.5008
     18 N4         -6.2246   -8.4228    2.6178 N.pl3     1 <0>        -0.6554
     19 C13        -5.2128   -9.2500    3.2892 C.3       1 <0>         0.1507
     20 C14        -5.9245  -10.3275    4.1133 C.3       1 <0>        -0.1075
     21 C15        -6.8767  -11.1113    3.2071 C.3       1 <0>        -0.1477
     22 C16        -7.9337  -10.1643    2.6344 C.3       1 <0>        -0.1079
     23 C17        -7.2484   -9.0855    1.7984 C.3       1 <0>         0.1500
     24 C18        -7.5535  -12.1944    4.0070 C.2       1 <0>         0.4944
     25 O3         -8.6760  -12.5632    3.7064 O.co2     1 <0>        -0.7015
     26 O4         -6.9785  -12.7019    4.9549 O.co2     1 <0>        -0.7015
     27 N5         -4.7887   -6.8101    0.7994 N.pl3     1 <0>        -0.8502
     28 H1         -4.4552    3.6937   -2.2947 H         1 <0>         0.0785
     29 H2         -3.9938    2.2005   -3.1467 H         1 <0>         0.0663
     30 H3         -5.6184    2.3538   -2.4359 H         1 <0>         0.0670
     31 H4         -2.9943    2.2762   -0.8786 H         1 <0>         0.0660
     32 H5         -4.6190    2.4295   -0.1678 H         1 <0>         0.0666
     33 H6         -3.3246   -2.0122   -0.7092 H         1 <0>         0.1083
     34 H7         -5.9471   -1.5580    0.7857 H         1 <0>         0.0749
     35 H8         -5.7609   -1.5864   -0.9849 H         1 <0>         0.0822
     36 H9         -6.5404   -3.7873   -0.0359 H         1 <0>         0.0745
     37 H10        -4.9911   -3.9120   -0.9084 H         1 <0>         0.0593
     38 H11        -3.1711   -3.9841    2.4585 H         1 <0>         0.0749
     39 H12        -2.7956   -4.0402    0.7170 H         1 <0>         0.0577
     40 H13        -2.3250   -1.7872    1.5588 H         1 <0>         0.0773
     41 H14        -3.9588   -1.6742    2.2577 H         1 <0>         0.0791
     42 H15        -7.4375   -4.7107    4.7121 H         1 <0>         0.1885
     43 H16        -4.5739   -9.7230    2.5434 H         1 <0>         0.0494
     44 H17        -4.6088   -8.6258    3.9478 H         1 <0>         0.0571
     45 H18        -5.1861  -11.0067    4.5393 H         1 <0>         0.0704
     46 H19        -6.4917   -9.8562    4.9160 H         1 <0>         0.0581
     47 H20        -6.3123  -11.5619    2.3907 H         1 <0>         0.0585
     48 H21        -8.6254  -10.7274    2.0077 H         1 <0>         0.0709
     49 H22        -8.4820   -9.6945    3.4510 H         1 <0>         0.0578
     50 H23        -7.9871   -8.3527    1.4737 H         1 <0>         0.0571
     51 H24        -6.7792   -9.5447    0.9283 H         1 <0>         0.0490
     52 H25        -4.2285   -6.2516    0.2381 H         1 <0>         0.3983
     53 H26        -4.8523   -7.7625    0.6265 H         1 <0>         0.4042
@<TRIPOS>BOND
     1    1    2 1
     2    1   28 1
     3    1   29 1
     4    1   30 1
     5    2    3 1
     6    2   31 1
     7    2   32 1
     8    3    4 1
     9    4    5 2
    10    4    6 1
    11    6   11 1
    12    6    7 1
    13    6   33 1
    14    7    8 1
    15    7   34 1
    16    7   35 1
    17    8    9 1
    18    8   36 1
    19    8   37 1
    20    9   10 1
    21    9   12 1
    22   10   11 1
    23   10   38 1
    24   10   39 1
    25   11   40 1
    26   11   41 1
    27   12   17 ar
    28   12   13 ar
    29   13   14 ar
    30   13   27 1
    31   14   15 ar
    32   14   18 1
    33   15   16 ar
    34   16   17 ar
    35   16   42 1
    36   18   23 1
    37   18   19 1
    38   19   20 1
    39   19   43 1
    40   19   44 1
    41   20   21 1
    42   20   45 1
    43   20   46 1
    44   21   22 1
    45   21   24 1
    46   21   47 1
    47   22   23 1
    48   22   48 1
    49   22   49 1
    50   23   50 1
    51   23   51 1
    52   24   25 2
    53   24   26 1
    54   27   52 1
    55   27   53 1
@<TRIPOS>MOLECULE
ZINC10158751
   44    46     0     0     0
SMALL
USER_CHARGES

@<TRIPOS>ATOM
      1 C1          0.0035    1.4947    0.2685 C.3       1 <0>        -0.1807
      2 C2          0.0049   -0.0117    0.0012 C.3       1 <0>         0.0788
      3 H1          0.5810   -0.5177    0.7759 H         1 <0>         0.1052
      4 C3          0.6264   -0.2825   -1.3447 C.2       1 <0>         0.5126
      5 O1         -0.0440   -0.7549   -2.2382 O.2       1 <0>        -0.5190
      6 N1          1.9272    0.0003   -1.5554 N.am      1 <0>        -0.5106
      7 N2          2.5050   -0.2515   -2.8066 N.am      1 <0>        -0.5276
      8 C4          3.8058    0.0313   -3.0174 C.2       1 <0>         0.6180
      9 O2          4.4779    0.5050   -2.1215 O.2       1 <0>        -0.5217
     10 C5          4.4141   -0.2337   -4.3345 C.2       1 <0>        -0.1202
     11 C6          5.7627    0.0045   -4.7029 C.2       1 <0>         0.2443
     12 C7          5.8594   -0.3896   -5.9985 C.2       1 <0>        -0.2597
     13 N3          4.6295   -0.8368   -6.3727 N.pl3     1 <0>        -0.2167
     14 N4          3.8070   -0.7424   -5.3904 N.2       1 <0>        -0.2726
     15 C8          4.3084   -1.3327   -7.6430 C.ar      1 <0>         0.1747
     16 C9          5.2826   -1.3997   -8.6303 C.ar      1 <0>        -0.1386
     17 C10         4.9631   -1.8895   -9.8815 C.ar      1 <0>        -0.0962
     18 C11         3.6746   -2.3128  -10.1516 C.ar      1 <0>        -0.1468
     19 C12         2.7022   -2.2469   -9.1706 C.ar      1 <0>        -0.0986
     20 C13         3.0168   -1.7635   -7.9157 C.ar      1 <0>        -0.1316
     21 O3          6.7514    0.5193   -3.9224 O.3       1 <0>        -0.7018
     22 O4         -1.3386   -0.4987    0.0122 O.3       1 <0>        -0.2786
     23 C14        -1.8695   -0.8178    1.2223 C.ar      1 <0>         0.1250
     24 C15        -3.1238   -1.4054    1.2968 C.ar      1 <0>        -0.1193
     25 C16        -3.6622   -1.7292    2.5272 C.ar      1 <0>        -0.1119
     26 C17        -2.9506   -1.4670    3.6856 C.ar      1 <0>         0.0567
     27 C18        -1.6987   -0.8801    3.6127 C.ar      1 <0>        -0.1103
     28 C19        -1.1551   -0.5614    2.3832 C.ar      1 <0>        -0.1849
     29 F1         -3.4784   -1.7837    4.8882 F         1 <0>        -0.1420
     30 H2          1.0282    1.8662    0.2602 H         1 <0>         0.0854
     31 H3         -0.5727    2.0007   -0.5062 H         1 <0>         0.0798
     32 H4         -0.4461    1.6906    1.2420 H         1 <0>         0.0792
     33 H5          2.4633    0.3781   -0.8408 H         1 <0>         0.4301
     34 H6          1.9689   -0.6293   -3.5213 H         1 <0>         0.4335
     35 H7          6.7449   -0.3546   -6.6158 H         1 <0>         0.1555
     36 H8          6.2890   -1.0690   -8.4201 H         1 <0>         0.1329
     37 H9          5.7202   -1.9416  -10.6499 H         1 <0>         0.1264
     38 H10         3.4272   -2.6954  -11.1307 H         1 <0>         0.1211
     39 H11         1.6966   -2.5776   -9.3848 H         1 <0>         0.1256
     40 H12         2.2581   -1.7167   -7.1485 H         1 <0>         0.1362
     41 H13        -3.6794   -1.6094    0.3934 H         1 <0>         0.1441
     42 H14        -4.6388   -2.1867    2.5855 H         1 <0>         0.1427
     43 H15        -1.1448   -0.6759    4.5170 H         1 <0>         0.1392
     44 H16        -0.1765   -0.1081    2.3263 H         1 <0>         0.1421
@<TRIPOS>BOND
     1    1    2 1
     2    1   30 1
     3    1   31 1
     4    1   32 1
     5    2    3 1
     6    2    4 1
     7    2   22 1
     8    4    5 2
     9    4    6 am
    10    6    7 1
    11    6   33 1
    12    7    8 am
    13    7   34 1
    14    8    9 2
    15    8   10 1
    16   10   14 2
    17   10   11 1
    18   11   12 2
    19   11   21 1
    20   12   13 1
    21   12   35 1
    22   13   14 1
    23   13   15 1
    24   15   20 ar
    25   15   16 ar
    26   16   17 ar
    27   16   36 1
    28   17   18 ar
    29   17   37 1
    30   18   19 ar
    31   18   38 1
    32   19   20 ar
    33   19   39 1
    34   20   40 1
    35   22   23 1
    36   23   28 ar
    37   23   24 ar
    38   24   25 ar
    39   24   41 1
    40   25   26 ar
    41   25   42 1
    42   26   27 ar
    43   26   29 1
    44   27   28 ar
    45   27   43 1
    46   28   44 1
@<TRIPOS>MOLECULE
ZINC64070119
   48    51     0     0     0
SMALL
USER_CHARGES

@<TRIPOS>ATOM
      1 C1         -1.7956    1.0466    1.2196 C.3       1 <0>         0.0267
      2 O1         -0.9145    0.0435    0.7102 O.3       1 <0>        -0.3101
      3 C2         -0.1058   -0.5799    1.6064 C.ar      1 <0>         0.1108
      4 C3         -0.1654   -0.2350    2.9496 C.ar      1 <0>        -0.1780
      5 C4          0.6530   -0.8640    3.8629 C.ar      1 <0>        -0.0018
      6 C5          1.5453   -1.8518    3.4372 C.ar      1 <0>        -0.0280
      7 C6          1.6049   -2.1992    2.0847 C.ar      1 <0>        -0.1508
      8 C7          0.7777   -1.5681    1.1756 C.ar      1 <0>         0.0789
      9 O2          0.8291   -1.9076   -0.1403 O.3       1 <0>        -0.3101
     10 C8          1.7578   -2.9284   -0.5111 C.3       1 <0>         0.0284
     11 C9          2.4225   -2.5259    4.4130 C.2       1 <0>         0.2306
     12 C10         3.2517   -1.8784    5.2790 C.2       1 <0>        -0.2178
     13 C11         3.9584   -2.9442    6.0880 C.3       1 <0>         0.1927
     14 N1          3.4275   -4.2158    5.5712 N.pl3     1 <0>        -0.4389
     15 N2          2.5054   -3.8852    4.5708 N.pl3     1 <0>        -0.5334
     16 C12         3.7716   -5.5002    5.9988 C.ar      1 <0>         0.2503
     17 C13         4.7011   -5.6691    7.0173 C.ar      1 <0>        -0.1910
     18 C14         5.0387   -6.9404    7.4380 C.ar      1 <0>        -0.0641
     19 C15         4.4531   -8.0445    6.8462 C.ar      1 <0>        -0.1904
     20 C16         3.5278   -7.8800    5.8318 C.ar      1 <0>        -0.0675
     21 C17         3.1810   -6.6113    5.4105 C.ar      1 <0>        -0.2066
     22 C18         3.4190   -0.4866    5.3978 C.2       1 <0>         0.4888
     23 O3          2.7980    0.3460    4.5304 O.3       1 <0>        -0.6500
     24 N3          4.1834    0.0081    6.3572 N.2       1 <0>        -0.6690
     25 C19         4.3440    1.3438    6.4712 C.2       1 <0>         0.5235
     26 N4          5.1019    1.9873    7.4027 N.pl3     1 <0>        -0.5282
     27 H1          5.6275    1.5798    8.1088 H         1 <0>         0.4205
     28 N5          4.9690    3.3594    7.1347 N.2       1 <0>        -0.3861
     29 C20         4.1752    3.4760    6.1035 C.2       1 <0>         0.1902
     30 N6          3.7985    2.2664    5.6950 N.2       1 <0>        -0.5671
     31 H2         -1.2120    1.8390    1.6881 H         1 <0>         0.0575
     32 H3         -2.3833    1.4633    0.4016 H         1 <0>         0.0953
     33 H4         -2.4637    0.6025    1.9575 H         1 <0>         0.0526
     34 H5         -0.8546    0.5281    3.2798 H         1 <0>         0.1338
     35 H6          0.6050   -0.5932    4.9073 H         1 <0>         0.1296
     36 H7          2.2931   -2.9620    1.7516 H         1 <0>         0.1287
     37 H8          1.5165   -3.8494    0.0197 H         1 <0>         0.0494
     38 H9          1.6972   -3.1018   -1.5856 H         1 <0>         0.0955
     39 H10         2.7680   -2.6128   -0.2504 H         1 <0>         0.0529
     40 H11         5.0354   -2.8897    5.9299 H         1 <0>         0.0725
     41 H12         3.7228   -2.8362    7.1468 H         1 <0>         0.0751
     42 H13         1.9958   -4.5310    4.0569 H         1 <0>         0.4231
     43 H14         5.1594   -4.8072    7.4793 H         1 <0>         0.1264
     44 H15         5.7613   -7.0724    8.2297 H         1 <0>         0.1223
     45 H16         4.7192   -9.0376    7.1769 H         1 <0>         0.1158
     46 H17         3.0725   -8.7445    5.3716 H         1 <0>         0.1182
     47 H18         2.4547   -6.4834    4.6215 H         1 <0>         0.1117
     48 H19         3.8741    4.4090    5.6506 H         1 <0>         0.1869
@<TRIPOS>BOND
     1    1    2 1
     2    1   31 1
     3    1   32 1
     4    1   33 1
     5    2    3 1
     6    3    8 ar
     7    3    4 ar
     8    4    5 ar
     9    4   34 1
    10    5    6 ar
    11    5   35 1
    12    6    7 ar
    13    6   11 1
    14    7    8 ar
    15    7   36 1
    16    8    9 1
    17    9   10 1
    18   10   37 1
    19   10   38 1
    20   10   39 1
    21   11   15 1
    22   11   12 2
    23   12   13 1
    24   12   22 1
    25   13   14 1
    26   13   40 1
    27   13   41 1
    28   14   15 1
    29   14   16 1
    30   15   42 1
    31   16   21 ar
    32   16   17 ar
    33   17   18 ar
    34   17   43 1
    35   18   19 ar
    36   18   44 1
    37   19   20 ar
    38   19   45 1
    39   20   21 ar
    40   20   46 1
    41   21   47 1
    42   22   23 1
    43   22   24 2
    44   24   25 1
    45   25   30 2
    46   25   26 1
    47   26   27 1
    48   26   28 1
    49   28   29 2
    50   29   30 1
    51   29   48 1
@<TRIPOS>MOLECULE
ZINC66785145
   44    46     0     0     0
SMALL
USER_CHARGES

@<TRIPOS>ATOM
      1 C1         -0.0167    1.3780    0.0096 C.ar      1 <0>        -0.1303
      2 C2          1.1706    2.0866    0.0021 C.ar      1 <0>        -0.0887
      3 C3          2.3773    1.4137   -0.0131 C.ar      1 <0>        -0.1542
      4 C4          2.3974    0.0291   -0.0207 C.ar      1 <0>         0.1160
      5 C5          1.2080   -0.6793   -0.0132 C.ar      1 <0>        -0.1032
      6 C6          0.0021   -0.0041    0.0020 C.ar      1 <0>        -0.0766
      7 C7          1.2281   -2.1862   -0.0220 C.3       1 <0>        -0.0917
      8 C8          1.3724   -2.6949    1.3892 C.2       1 <0>         0.5142
      9 O1          1.4512   -1.9110    2.3113 O.2       1 <0>        -0.5310
     10 N1          1.4139   -4.0209    1.6266 N.am      1 <0>        -0.5216
     11 N2          1.5481   -4.4939    2.9385 N.am      1 <0>        -0.5282
     12 C9          1.5896   -5.8199    3.1759 C.2       1 <0>         0.5281
     13 O2          1.5109   -6.6038    2.2538 O.2       1 <0>        -0.5379
     14 C10         1.7340   -6.3286    4.5871 C.3       1 <0>        -0.1442
     15 C11         1.7544   -7.8585    4.5781 C.3       1 <0>         0.1629
     16 N3          1.8947   -8.3530    5.9500 N.am      1 <0>        -0.4073
     17 C12         0.7843   -8.5959    6.6765 C.2       1 <0>         0.5061
     18 O3         -0.3214   -8.4078    6.2004 O.2       1 <0>        -0.5794
     19 C13         0.9312   -9.0915    8.0511 C.ar      1 <0>        -0.1280
     20 C14        -0.1723   -9.3641    8.8584 C.ar      1 <0>        -0.0708
     21 C15         0.0225   -9.8278   10.1407 C.ar      1 <0>        -0.1361
     22 C16         1.3052  -10.0258   10.6356 C.ar      1 <0>        -0.1128
     23 C17         2.4092   -9.7631    9.8556 C.ar      1 <0>        -0.0852
     24 C18         2.2362   -9.2927    8.5535 C.ar      1 <0>        -0.0677
     25 C19         3.3769   -8.9976    7.6802 C.2       1 <0>         0.3966
     26 O4          4.6437   -9.1805    8.1321 O.3       1 <0>        -0.7042
     27 N4          3.1728   -8.5651    6.4673 N.2       1 <0>        -0.4139
     28 F1          3.5766   -0.6299   -0.0360 F         1 <0>        -0.1360
     29 H1         -0.9594    1.9048    0.0260 H         1 <0>         0.1304
     30 H2          1.1547    3.1665    0.0077 H         1 <0>         0.1324
     31 H3          3.3046    1.9675   -0.0193 H         1 <0>         0.1358
     32 H4         -0.9259   -0.5565    0.0083 H         1 <0>         0.1326
     33 H5          0.2975   -2.5595   -0.4494 H         1 <0>         0.1157
     34 H6          2.0689   -2.5348   -0.6216 H         1 <0>         0.1126
     35 H7          1.3509   -4.6479    0.8891 H         1 <0>         0.4319
     36 H8          1.6111   -3.8669    3.6760 H         1 <0>         0.4325
     37 H9          2.6646   -5.9553    5.0144 H         1 <0>         0.1089
     38 H10         0.8932   -5.9800    5.1867 H         1 <0>         0.1009
     39 H11         0.8237   -8.2317    4.1507 H         1 <0>         0.0905
     40 H12         2.5952   -8.2071    3.9784 H         1 <0>         0.0923
     41 H13        -1.1728   -9.2124    8.4811 H         1 <0>         0.1302
     42 H14        -0.8309  -10.0392   10.7679 H         1 <0>         0.1215
     43 H15         1.4381  -10.3897   11.6438 H         1 <0>         0.1211
     44 H16         3.4025   -9.9199   10.2494 H         1 <0>         0.1356
@<TRIPOS>BOND
     1    1    6 ar
     2    1    2 ar
     3    1   29 1
     4    2    3 ar
     5    2   30 1
     6    3    4 ar
     7    3   31 1
     8    4    5 ar
     9    4   28 1
    10    5    6 ar
    11    5    7 1
    12    6   32 1
    13    7    8 1
    14    7   33 1
    15    7   34 1
    16    8    9 2
    17    8   10 am
    18   10   11 1
    19   10   35 1
    20   11   12 am
    21   11   36 1
    22   12   13 2
    23   12   14 1
    24   14   15 1
    25   14   37 1
    26   14   38 1
    27   15   16 1
    28   15   39 1
    29   15   40 1
    30   16   27 1
    31   16   17 am
    32   17   18 2
    33   17   19 1
    34   19   24 ar
    35   19   20 ar
    36   20   21 ar
    37   20   41 1
    38   21   22 ar
    39   21   42 1
    40   22   23 ar
    41   22   43 1
    42   23   24 ar
    43   23   44 1
    44   24   25 1
    45   25   26 1
    46   25   27 2
@<TRIPOS>MOLECULE
ZINC13033763
   44    45     0     0     0
SMALL
USER_CHARGES
2-[3-[2-(ethylcarbamoylamino)-2-oxo-ethyl]sulfanyl-5-(p-tolyl)-1,2,4-triazol-4-yl]acetic acid
@<TRIPOS>ATOM
      1 C1          4.6283    7.3217   -0.4559 C.3       1 <0>        -0.1648
      2 C2          4.6156    5.7918   -0.4422 C.3       1 <0>         0.1292
      3 N1          3.2325    5.3156   -0.3613 N.am      1 <0>        -0.7394
      4 C3          2.9757    3.9927   -0.3358 C.2       1 <0>         0.6938
      5 O1          3.8915    3.1949   -0.3800 O.2       1 <0>        -0.5265
      6 N2          1.7033    3.5546   -0.2613 N.am      1 <0>        -0.6865
      7 C4          1.4465    2.2318   -0.2358 C.2       1 <0>         0.5388
      8 O2          2.3600    1.4360   -0.2799 O.2       1 <0>        -0.4458
      9 C5          0.0237    1.7420   -0.1526 C.3       1 <0>        -0.1526
     10 S1          0.0088   -0.0679   -0.1364 S.3       1 <0>         0.0933
     11 C6         -1.7262   -0.3587   -0.0375 C.2       1 <0>         0.1492
     12 N3         -2.6685    0.5564    0.0129 N.2       1 <0>        -0.3030
     13 N4         -3.8238   -0.0030    0.0761 N.2       1 <0>        -0.2788
     14 C7         -3.6898   -1.3088    0.0797 C.2       1 <0>         0.2279
     15 N5         -2.3422   -1.5767    0.0071 N.pl3     1 <0>        -0.4146
     16 C8         -1.7017   -2.8940   -0.0181 C.3       1 <0>         0.0407
     17 C9         -1.3502   -3.3086    1.3875 C.2       1 <0>         0.4552
     18 O3         -1.6082   -2.5785    2.3151 O.co2     1 <0>        -0.6069
     19 C10        -4.7810   -2.3038    0.1493 C.ar      1 <0>        -0.0152
     20 C11        -4.5129   -3.6104    0.5606 C.ar      1 <0>        -0.0983
     21 C12        -5.5367   -4.5327    0.6283 C.ar      1 <0>        -0.1155
     22 C13        -6.8248   -4.1678    0.2790 C.ar      1 <0>        -0.0806
     23 C14        -7.0962   -2.8759   -0.1350 C.ar      1 <0>        -0.1255
     24 C15        -6.0826   -1.9423   -0.2017 C.ar      1 <0>        -0.0753
     25 C16        -7.9370   -5.1823    0.3494 C.3       1 <0>        -0.1131
     26 H1          4.0688    7.6819   -1.3192 H         1 <0>         0.0623
     27 H2          4.1677    7.6970    0.4579 H         1 <0>         0.0626
     28 H3          5.6573    7.6760   -0.5161 H         1 <0>         0.0765
     29 H4          5.1750    5.4315    0.4211 H         1 <0>         0.0698
     30 H5          5.0762    5.4164   -1.3560 H         1 <0>         0.0695
     31 H6          2.5016    5.9523   -0.3260 H         1 <0>         0.3988
     32 H7          0.9724    4.1914   -0.2261 H         1 <0>         0.4126
     33 H8         -0.5357    2.1022   -1.0159 H         1 <0>         0.1309
     34 H9         -0.4369    2.1173    0.7612 H         1 <0>         0.1328
     35 H10        -2.3867   -3.6228   -0.4513 H         1 <0>         0.1098
     36 H11        -0.7944   -2.8454   -0.6202 H         1 <0>         0.1045
     37 H12        -3.5071   -3.8976    0.8293 H         1 <0>         0.1382
     38 H13        -5.3315   -5.5428    0.9507 H         1 <0>         0.1281
     39 H14        -8.1038   -2.5975   -0.4063 H         1 <0>         0.1260
     40 H15        -6.2958   -0.9342   -0.5251 H         1 <0>         0.1335
     41 H16        -8.0181   -5.6994   -0.6067 H         1 <0>         0.0698
     42 H17        -7.7204   -5.9049    1.1361 H         1 <0>         0.0668
     43 H18        -8.8769   -4.6762    0.5696 H         1 <0>         0.0654
     44 O4         -0.7504   -4.4888    1.6090 O.co2     1 <0>        -0.7434
@<TRIPOS>BOND
     1    1    2 1
     2    1   26 1
     3    1   27 1
     4    1   28 1
     5    2    3 1
     6    2   29 1
     7    2   30 1
     8    3    4 am
     9    3   31 1
    10    4    5 2
    11    4    6 am
    12    6    7 am
    13    6   32 1
    14    7    8 2
    15    7    9 1
    16    9   10 1
    17    9   33 1
    18    9   34 1
    19   10   11 1
    20   11   15 1
    21   11   12 2
    22   12   13 1
    23   13   14 2
    24   14   15 1
    25   14   19 1
    26   15   16 1
    27   16   17 1
    28   16   35 1
    29   16   36 1
    30   17   18 2
    31   17   44 1
    32   19   24 ar
    33   19   20 ar
    34   20   21 ar
    35   20   37 1
    36   21   22 ar
    37   21   38 1
    38   22   23 ar
    39   22   25 1
    40   23   24 ar
    41   23   39 1
    42   24   40 1
    43   25   41 1
    44   25   42 1
    45   25   43 1
@<TRIPOS>MOLECULE
ZINC04259603
   47    49     0     0     0
SMALL
USER_CHARGES
2-[4-[(E)-[[2-[(3-cyano-4,5,6,7-tetrahydrobenzothiophen-2-yl)amino]-2-oxo-acetyl]hydrazono]methyl]phenoxy]acetic acid
@<TRIPOS>ATOM
      1 C1         -4.0319   12.9296   -5.5049 C.ar      1 <0>        -0.0267
      2 C2         -4.3711   14.2173   -5.8579 C.ar      1 <0>        -0.2255
      3 C3         -4.6989   14.5155   -7.1746 C.ar      1 <0>         0.1685
      4 C4         -4.6820   13.5186   -8.1420 C.ar      1 <0>        -0.1670
      5 C5         -4.3394   12.2289   -7.7994 C.ar      1 <0>        -0.0411
      6 C6         -4.0083   11.9241   -6.4759 C.ar      1 <0>        -0.1307
      7 C7         -3.6417   10.5464   -6.1043 C.2       1 <0>         0.1511
      8 N1         -3.3343   10.2654   -4.8736 N.2       1 <0>        -0.2508
      9 N2         -2.9857    8.9553   -4.5202 N.am      1 <0>        -0.5644
     10 C8         -2.6669    8.6638   -3.2436 C.2       1 <0>         0.5347
     11 O1         -2.6818    9.5370   -2.3993 O.2       1 <0>        -0.4805
     12 C9         -2.2961    7.2704   -2.8678 C.2       1 <0>         0.5174
     13 O2         -2.2811    6.3975   -3.7117 O.2       1 <0>        -0.4797
     14 N3         -1.9773    6.9789   -1.5911 N.am      1 <0>        -0.6072
     15 C10        -1.6326    5.6837   -1.2418 C.2       1 <0>         0.1224
     16 C11        -1.2755    5.1823    0.0041 C.2       1 <0>        -0.1144
     17 C12        -0.9561    3.7688    0.1003 C.2       1 <0>        -0.0634
     18 C13        -1.0357    3.0584   -1.0479 C.2       1 <0>        -0.1911
     19 S1         -1.5328    4.2341   -2.2769 S.3       1 <0>         0.2014
     20 C14        -0.7616    1.5976   -1.2309 C.3       1 <0>        -0.0385
     21 C15        -0.0127    1.0858    0.0080 C.3       1 <0>        -0.1153
     22 C16        -0.7359    1.5829    1.2632 C.3       1 <0>        -0.1197
     23 C17        -0.5509    3.0931    1.4070 C.3       1 <0>        -0.0645
     24 C18        -1.2246    6.0317    1.1559 C.1       1 <0>         0.2631
     25 N4         -1.1843    6.7056    2.0696 N.1       1 <0>        -0.4153
     26 O3         -5.0374   15.7856   -7.5171 O.3       1 <0>        -0.2817
     27 C19        -5.0344   16.7616   -6.4734 C.3       1 <0>         0.0131
     28 C20        -5.4323   18.1013   -7.0373 C.2       1 <0>         0.4692
     29 O4         -5.6917   18.2092   -8.2124 O.co2     1 <0>        -0.6135
     30 O5         -5.4984   19.1747   -6.2341 O.co2     1 <0>        -0.7530
     31 H1         -3.7812   12.6979   -4.4802 H         1 <0>         0.1338
     32 H2         -4.3856   14.9956   -5.1093 H         1 <0>         0.1350
     33 H3         -4.9383   13.7549   -9.1642 H         1 <0>         0.1371
     34 H4         -4.3269   11.4545   -8.5521 H         1 <0>         0.1325
     35 H5         -3.6282    9.7557   -6.8688 H         1 <0>         0.1256
     36 H6         -2.9722    8.1645   -5.2847 H         1 <0>         0.4177
     37 H7         -1.9909    7.7696   -0.8265 H         1 <0>         0.4663
     38 H8         -1.7131    1.0575   -1.3451 H         1 <0>         0.0860
     39 H9         -0.1459    1.4499   -2.1304 H         1 <0>         0.0842
     40 H10         0.0033   -0.0140   -0.0016 H         1 <0>         0.0753
     41 H11         1.0188    1.4676   -0.0033 H         1 <0>         0.0701
     42 H12        -1.8090    1.3551    1.1825 H         1 <0>         0.0691
     43 H13        -0.3201    1.0807    2.1491 H         1 <0>         0.0718
     44 H14         0.5034    3.3189    1.6250 H         1 <0>         0.0808
     45 H15        -1.1830    3.4684    2.2253 H         1 <0>         0.0755
     46 H16        -5.7500   16.4653   -5.6923 H         1 <0>         0.0710
     47 H17        -4.0260   16.8313   -6.0394 H         1 <0>         0.0710
@<TRIPOS>BOND
     1    1    6 ar
     2    1    2 ar
     3    1   31 1
     4    2    3 ar
     5    2   32 1
     6    3    4 ar
     7    3   26 1
     8    4    5 ar
     9    4   33 1
    10    5    6 ar
    11    5   34 1
    12    6    7 1
    13    7    8 2
    14    7   35 1
    15    8    9 1
    16    9   10 am
    17    9   36 1
    18   10   11 2
    19   10   12 1
    20   12   13 2
    21   12   14 am
    22   14   15 1
    23   14   37 1
    24   15   19 1
    25   15   16 2
    26   16   17 1
    27   16   24 1
    28   17   23 1
    29   17   18 2
    30   18   19 1
    31   18   20 1
    32   20   21 1
    33   20   38 1
    34   20   39 1
    35   21   22 1
    36   21   40 1
    37   21   41 1
    38   22   23 1
    39   22   42 1
    40   22   43 1
    41   23   44 1
    42   23   45 1
    43   24   25 3
    44   26   27 1
    45   27   28 1
    46   27   46 1
    47   27   47 1
    48   28   29 2
    49   28   30 1
@<TRIPOS>MOLECULE
ZINC49166962
   39    40     0     0     0
SMALL
USER_CHARGES

@<TRIPOS>ATOM
      1 C1         -1.1608   -2.4264   -1.9684 C.3       1 <0>        -0.0673
      2 C2         -0.4898   -1.6935   -0.8354 C.2       1 <0>         0.0172
      3 C3         -1.0713   -0.7443   -0.0389 C.2       1 <0>        -0.1886
      4 C4         -0.0247   -0.3310    0.9098 C.2       1 <0>        -0.1783
      5 C5          1.0607   -1.0548    0.5996 C.2       1 <0>        -0.0563
      6 O1          0.7729   -1.8632   -0.4328 O.3       1 <0>        -0.1847
      7 C6         -2.4481   -0.2438   -0.1150 C.2       1 <0>         0.4208
      8 O2         -3.4834   -1.1034   -0.0321 O.3       1 <0>        -0.5786
      9 C7         -2.6865    1.1240   -0.2735 C.2       1 <0>        -0.4196
     10 C8         -1.5911    2.0222   -0.4832 C.1       1 <0>         0.3066
     11 N1         -0.7221    2.7347   -0.6496 N.1       1 <0>        -0.5330
     12 C9         -4.0069    1.6201   -0.2270 C.2       1 <0>         0.4310
     13 O3         -4.9361    0.8582   -0.0491 O.2       1 <0>        -0.4735
     14 C10        -4.2640    3.0952   -0.3979 C.3       1 <0>        -0.2180
     15 S1         -6.0463    3.4148   -0.2893 S.3       1 <0>         0.1165
     16 C11        -6.1807    5.1583   -0.5057 C.ar      1 <0>        -0.0337
     17 C12        -5.0347    5.9240   -0.7082 C.ar      1 <0>        -0.1502
     18 C13        -5.1328    7.2756   -0.8764 C.ar      1 <0>        -0.0138
     19 C14        -6.3855    7.8963   -0.8455 C.ar      1 <0>        -0.1702
     20 C15        -7.5375    7.1301   -0.6425 C.ar      1 <0>         0.0319
     21 C16        -7.4331    5.7676   -0.4796 C.ar      1 <0>        -0.0607
     22 N2         -8.6499    4.9511   -0.2703 N.pl3     1 <0>         0.0382
     23 O4         -9.7366    5.4805   -0.2478 O.2       1 <0>        -0.1703
     24 O5         -8.5571    3.7548   -0.1219 O.3       1 <0>        -0.1325
     25 C17        -6.4914    9.3561   -1.0263 C.2       1 <0>         0.5727
     26 O6         -7.5813    9.8946   -0.9992 O.2       1 <0>        -0.5350
     27 N3         -5.3802   10.0933   -1.2215 N.am      1 <0>        -0.8494
     28 H1         -0.4316   -3.0592   -2.4742 H         1 <0>         0.0694
     29 H2         -1.9671   -3.0449   -1.5740 H         1 <0>         0.0925
     30 H3         -1.5692   -1.7052   -2.6763 H         1 <0>         0.0846
     31 H4         -0.1126    0.4053    1.6950 H         1 <0>         0.1473
     32 H5          2.0143   -0.9994    1.1035 H         1 <0>         0.1991
     33 H6         -3.7474    3.6474    0.3871 H         1 <0>         0.1068
     34 H7         -3.8957    3.4177   -1.3718 H         1 <0>         0.1071
     35 H8         -4.0659    5.4474   -0.7318 H         1 <0>         0.1523
     36 H9         -4.2420    7.8658   -1.0332 H         1 <0>         0.1436
     37 H10        -8.5069    7.6058   -0.6180 H         1 <0>         0.1665
     38 H11        -4.5107    9.6638   -1.2431 H         1 <0>         0.4016
     39 H12        -5.4498   11.0535   -1.3404 H         1 <0>         0.4081
@<TRIPOS>BOND
     1    1    2 1
     2    1   28 1
     3    1   29 1
     4    1   30 1
     5    2    6 1
     6    2    3 2
     7    3    4 1
     8    3    7 1
     9    4    5 2
    10    4   31 1
    11    5    6 1
    12    5   32 1
    13    7    8 1
    14    7    9 2
    15    9   10 1
    16    9   12 1
    17   10   11 3
    18   12   13 2
    19   12   14 1
    20   14   15 1
    21   14   33 1
    22   14   34 1
    23   15   16 1
    24   16   21 ar
    25   16   17 ar
    26   17   18 ar
    27   17   35 1
    28   18   19 ar
    29   18   36 1
    30   19   20 ar
    31   19   25 1
    32   20   21 ar
    33   20   37 1
    34   21   22 1
    35   22   23 2
    36   22   24 1
    37   25   26 2
    38   25   27 am
    39   27   38 1
    40   27   39 1
@<TRIPOS>MOLECULE
ZINC62107761
   46    47     0     0     0
SMALL
USER_CHARGES

@<TRIPOS>ATOM
      1 C1         -0.0184    1.5028    0.0103 C.3       1 <0>        -0.1400
      2 C2          0.0021   -0.0041    0.0020 C.2       1 <0>         0.2209
      3 C3          0.0079   -0.7958   -1.0953 C.2       1 <0>        -0.8211
      4 C4          0.0284   -2.1267   -0.6656 C.2       1 <0>         0.1690
      5 N1          0.0347   -2.1338    0.6427 N.2       1 <0>        -0.2937
      6 N2          0.0237   -0.8054    1.0876 N.pl3     1 <0>        -0.4643
      7 H1          0.0286   -0.5133    2.0125 H         1 <0>         0.4413
      8 C5          0.0404   -3.3426   -1.5559 C.3       1 <0>        -0.1127
      9 S1         -0.0081   -0.2472   -2.7696 S.o2      1 <0>         2.7272
     10 O1         -0.5477   -1.3118   -3.5407 O.2       1 <0>        -0.9569
     11 O2         -0.5775    1.0548   -2.7649 O.2       1 <0>        -0.9687
     12 N3          1.5692   -0.0722   -3.2427 N.pl3     1 <0>        -1.1158
     13 C6          2.4438   -1.2447   -3.3241 C.3       1 <0>         0.1151
     14 C7          3.6994   -0.8898   -4.1231 C.3       1 <0>        -0.1212
     15 C8          4.6129   -2.1142   -4.2082 C.3       1 <0>        -0.0546
     16 C9          5.8496   -1.7647   -4.9952 C.ar      1 <0>        -0.2011
     17 C10         5.8661   -1.9377   -6.3671 C.ar      1 <0>        -0.0733
     18 C11         6.9977   -1.6183   -7.0914 C.ar      1 <0>        -0.1871
     19 C12         8.1203   -1.1228   -6.4403 C.ar      1 <0>         0.2822
     20 C13         8.1003   -0.9503   -5.0621 C.ar      1 <0>        -0.2579
     21 C14         6.9634   -1.2663   -4.3446 C.ar      1 <0>        -0.0621
     22 N4          9.2667   -0.7993   -7.1696 N.2       1 <0>        -1.1005
     23 S2         10.6039   -0.2087   -6.3915 S.o2      1 <0>         2.5245
     24 O3         10.1857    1.0344   -5.8447 O.2       1 <0>        -1.0322
     25 O4         11.0271   -1.2675   -5.5435 O.2       1 <0>        -1.0321
     26 C15        11.8245    0.0655   -7.7052 C.3       1 <0>        -0.6374
     27 H2          1.0042    1.8801    0.0026 H         1 <0>         0.0979
     28 H3         -0.5455    1.8639   -0.8728 H         1 <0>         0.1270
     29 H4         -0.5286    1.8543    0.9071 H         1 <0>         0.0841
     30 H5          1.0708   -3.6217   -1.7759 H         1 <0>         0.0893
     31 H6         -0.4595   -4.1685   -1.0497 H         1 <0>         0.0821
     32 H7         -0.4815   -3.1172   -2.4858 H         1 <0>         0.1134
     33 H8          1.9140    0.8065   -3.4658 H         1 <0>         0.4188
     34 H9          2.7287   -1.5560   -2.3191 H         1 <0>         0.0609
     35 H10         1.9153   -2.0585   -3.8205 H         1 <0>         0.0805
     36 H11         3.4146   -0.5784   -5.1282 H         1 <0>         0.0730
     37 H12         4.2280   -0.0760   -3.6268 H         1 <0>         0.0688
     38 H13         4.8977   -2.4256   -3.2032 H         1 <0>         0.0587
     39 H14         4.0843   -2.9281   -4.7046 H         1 <0>         0.0626
     40 H15         4.9931   -2.3233   -6.8727 H         1 <0>         0.1023
     41 H16         7.0101   -1.7540   -8.1628 H         1 <0>         0.1083
     42 H17         8.9715   -0.5656   -4.5527 H         1 <0>         0.0987
     43 H18         6.9457   -1.1283   -3.2736 H         1 <0>         0.0969
     44 H19        11.4283    0.7811   -8.4256 H         1 <0>         0.1145
     45 H20        12.7438    0.4583   -7.2707 H         1 <0>         0.1001
     46 H21        12.0348   -0.8782   -8.2085 H         1 <0>         0.1145
@<TRIPOS>BOND
     1    1    2 1
     2    1   27 1
     3    1   28 1
     4    1   29 1
     5    2    6 1
     6    2    3 2
     7    3    4 1
     8    3    9 1
     9    4    5 2
    10    4    8 1
    11    5    6 1
    12    6    7 1
    13    8   30 1
    14    8   31 1
    15    8   32 1
    16    9   10 2
    17    9   11 2
    18    9   12 1
    19   12   13 1
    20   12   33 1
    21   13   14 1
    22   13   34 1
    23   13   35 1
    24   14   15 1
    25   14   36 1
    26   14   37 1
    27   15   16 1
    28   15   38 1
    29   15   39 1
    30   16   21 ar
    31   16   17 ar
    32   17   18 ar
    33   17   40 1
    34   18   19 ar
    35   18   41 1
    36   19   20 ar
    37   19   22 1
    38   20   21 ar
    39   20   42 1
    40   21   43 1
    41   22   23 1
    42   23   24 2
    43   23   25 2
    44   23   26 1
    45   26   44 1
    46   26   45 1
    47   26   46 1
@<TRIPOS>MOLECULE
ZINC64612920
   47    50     0     0     0
SMALL
USER_CHARGES

@<TRIPOS>ATOM
      1 C1         -0.0173    1.4248    0.0099 C.3       1 <0>         0.0293
      2 O1          0.0021   -0.0041    0.0020 O.3       1 <0>        -0.2951
      3 C2         -1.2013   -0.6380    0.0101 C.ar      1 <0>         0.0622
      4 C3         -2.3740    0.0989    0.0195 C.ar      1 <0>        -0.1710
      5 C4         -3.5967   -0.5469    0.0283 C.ar      1 <0>        -0.1919
      6 C5         -3.6532   -1.9283    0.0271 C.ar      1 <0>        -0.0941
      7 C6         -2.4875   -2.6710    0.0173 C.ar      1 <0>        -0.2445
      8 C7         -1.2572   -2.0300    0.0032 C.ar      1 <0>         0.2618
      9 N1         -0.0754   -2.7797   -0.0127 N.2       1 <0>        -1.0736
     10 S1         -0.1446   -4.4343   -0.0209 S.o2      1 <0>         2.6144
     11 O2         -0.6994   -4.8238    1.2280 O.2       1 <0>        -1.0277
     12 O3         -0.7243   -4.8104   -1.2626 O.2       1 <0>        -1.0285
     13 C8          1.5154   -5.0249   -0.0406 C.2       1 <0>        -0.6714
     14 C9          2.1764   -5.5421   -1.0706 C.2       1 <0>         0.1168
     15 N2          3.4408   -5.8978   -0.7438 N.2       1 <0>        -0.4615
     16 C10         3.7379   -5.6624    0.4893 C.2       1 <0>         0.1392
     17 C11         2.5006   -5.0466    1.1134 C.3       1 <0>        -0.0842
     18 C12         5.0531   -5.9384    1.1713 C.3       1 <0>         0.2740
     19 H1          5.6775   -5.0450    1.1763 H         1 <0>         0.1272
     20 N3          5.7590   -7.0686    0.5124 N.3       1 <0>        -0.4821
     21 N4          6.6354   -7.5909    1.5674 N.3       1 <0>        -0.5209
     22 C13         6.0326   -7.1571    2.8448 C.3       1 <0>         0.2500
     23 H2          6.7277   -6.5148    3.3855 H         1 <0>         0.0832
     24 O4          4.8390   -6.4189    2.5174 O.3       1 <0>        -0.3821
     25 C14         5.6839   -8.3593    3.6840 C.ar      1 <0>        -0.0874
     26 C15         5.3490   -9.5540    3.0745 C.ar      1 <0>        -0.0741
     27 C16         5.0292  -10.6567    3.8443 C.ar      1 <0>        -0.1279
     28 C17         5.0447  -10.5649    5.2235 C.ar      1 <0>        -0.1108
     29 C18         5.3805   -9.3705    5.8330 C.ar      1 <0>        -0.1259
     30 C19         5.7045   -8.2689    5.0632 C.ar      1 <0>        -0.0978
     31 H3          1.0053    1.8021    0.0021 H         1 <0>         0.0843
     32 H4         -0.5445    1.7859   -0.8732 H         1 <0>         0.0415
     33 H5         -0.5275    1.7763    0.9067 H         1 <0>         0.0415
     34 H6         -2.3335    1.1781    0.0204 H         1 <0>         0.1112
     35 H7         -4.5101    0.0293    0.0363 H         1 <0>         0.1040
     36 H8         -4.6104   -2.4284    0.0343 H         1 <0>         0.1040
     37 H9         -2.5344   -3.7500    0.0168 H         1 <0>         0.1030
     38 H10         1.7527   -5.6653   -2.0564 H         1 <0>         0.1750
     39 H11         2.7057   -4.0354    1.4648 H         1 <0>         0.1366
     40 H12         2.1293   -5.6708    1.9262 H         1 <0>         0.1328
     41 H13         5.1054   -7.7726    0.2039 H         1 <0>         0.3715
     42 H14         7.5731   -7.2312    1.4695 H         1 <0>         0.3698
     43 H15         5.3369   -9.6257    1.9970 H         1 <0>         0.1274
     44 H16         4.7668  -11.5899    3.3682 H         1 <0>         0.1232
     45 H17         4.7941  -11.4263    5.8249 H         1 <0>         0.1219
     46 H18         5.3923   -9.2986    6.9105 H         1 <0>         0.1238
     47 H19         5.9705   -7.3367    5.5394 H         1 <0>         0.1229
@<TRIPOS>BOND
     1    1    2 1
     2    1   31 1
     3    1   32 1
     4    1   33 1
     5    2    3 1
     6    3    8 ar
     7    3    4 ar
     8    4    5 ar
     9    4   34 1
    10    5    6 ar
    11    5   35 1
    12    6    7 ar
    13    6   36 1
    14    7    8 ar
    15    7   37 1
    16    8    9 1
    17    9   10 1
    18   10   11 2
    19   10   12 2
    20   10   13 1
    21   13   17 1
    22   13   14 2
    23   14   15 1
    24   14   38 1
    25   15   16 2
    26   16   17 1
    27   16   18 1
    28   17   39 1
    29   17   40 1
    30   18   19 1
    31   18   24 1
    32   18   20 1
    33   20   21 1
    34   20   41 1
    35   21   22 1
    36   21   42 1
    37   22   23 1
    38   22   24 1
    39   22   25 1
    40   25   30 ar
    41   25   26 ar
    42   26   27 ar
    43   26   43 1
    44   27   28 ar
    45   27   44 1
    46   28   29 ar
    47   28   45 1
    48   29   30 ar
    49   29   46 1
    50   30   47 1
@<TRIPOS>MOLECULE
ZINC05344322
   42    44     0     0     0
SMALL
USER_CHARGES
2-[3-(1-cyclopent-2-enyl)-2-[(3-nitrophenyl)methyleneaminoimino]-4-oxo-thiazolidin-5-yl]acetic acid
@<TRIPOS>ATOM
      1 C1         -3.6422    1.9926    0.0298 C.ar      1 <0>        -0.1141
      2 C2         -2.4593    1.3136    0.0150 C.ar      1 <0>        -0.0309
      3 C3         -1.2389    2.0315    0.0190 C.ar      1 <0>        -0.0289
      4 C4         -1.2657    3.4474    0.0268 C.ar      1 <0>        -0.0400
      5 C5         -2.4631    4.0998    0.0361 C.ar      1 <0>        -0.0024
      6 C6         -3.6533    3.3820    0.0374 C.ar      1 <0>        -0.0522
      7 N1         -2.4956    5.5796    0.0443 N.pl3     1 <0>        -0.0175
      8 O1         -1.3697    6.2629    0.0426 O.2       1 <0>        -0.1717
      9 O2         -3.6503    6.2129    0.0532 O.3       1 <0>        -0.1715
     10 C7         -0.0163    1.3476    0.0095 C.2       1 <0>         0.1057
     11 N2          0.0021   -0.0041    0.0020 N.2       1 <0>        -0.2963
     12 N3          1.1278   -0.6338   -0.0121 N.2       1 <0>        -0.3693
     13 C8          1.1464   -2.0020   -0.0196 C.2       1 <0>         0.3870
     14 N4          2.2317   -2.8143   -0.0344 N.am      1 <0>        -0.5307
     15 C9          2.1398   -4.1352   -0.0406 C.2       1 <0>         0.5255
     16 O3          3.1100   -4.8618   -0.0538 O.2       1 <0>        -0.4646
     17 C10         0.7129   -4.6636   -0.0298 C.3       1 <0>        -0.0746
     18 H1          0.5141   -5.2485    0.8682 H         1 <0>         0.1647
     19 S1         -0.2140   -3.0792   -0.0048 S.3       1 <0>         0.0028
     20 C11         0.4101   -5.4721   -1.2930 C.3       1 <0>        -0.1396
     21 C12        -0.9661   -6.0765   -1.1846 C.2       1 <0>         0.4673
     22 O4         -1.6360   -5.8808   -0.1983 O.co2     1 <0>        -0.6283
     23 C13         3.5636   -2.2043   -0.0433 C.3       1 <0>         0.1394
     24 H2          4.3335   -2.9756   -0.0669 H         1 <0>         0.1199
     25 C14         3.7485   -1.2963    1.1946 C.3       1 <0>        -0.1283
     26 C15         4.5875   -0.1398    0.6031 C.3       1 <0>        -0.0920
     27 C16         4.2676   -0.1496   -0.8736 C.2       1 <0>        -0.1311
     28 C17         3.7103   -1.2777   -1.2278 C.2       1 <0>        -0.1690
     29 H3         -4.5746    1.4477    0.0309 H         1 <0>         0.1526
     30 H4         -2.4535    0.2336    0.0046 H         1 <0>         0.1571
     31 H5         -0.3424    4.0077    0.0258 H         1 <0>         0.1590
     32 H6         -4.5958    3.9092    0.0440 H         1 <0>         0.1542
     33 H7          0.9116    1.9003    0.0036 H         1 <0>         0.1207
     34 H8          0.4514   -4.8163   -2.1627 H         1 <0>         0.0821
     35 H9          1.1484   -6.2666   -1.4016 H         1 <0>         0.0988
     36 H10         2.7880   -0.9349    1.5618 H         1 <0>         0.0883
     37 H11         4.2965   -1.8145    1.9816 H         1 <0>         0.0766
     38 H12         4.2927    0.8100    1.0492 H         1 <0>         0.0755
     39 H13         5.6503   -0.3206    0.7644 H         1 <0>         0.0778
     40 H14         4.4742    0.6676   -1.5489 H         1 <0>         0.1283
     41 H15         3.3950   -1.5164   -2.2328 H         1 <0>         0.1246
     42 O5         -1.4477   -6.8324   -2.1839 O.co2     1 <0>        -0.7549
@<TRIPOS>BOND
     1    1    6 ar
     2    1    2 ar
     3    1   29 1
     4    2    3 ar
     5    2   30 1
     6    3    4 ar
     7    3   10 1
     8    4    5 ar
     9    4   31 1
    10    5    6 ar
    11    5    7 1
    12    6   32 1
    13    7    8 2
    14    7    9 1
    15   10   11 2
    16   10   33 1
    17   11   12 1
    18   12   13 2
    19   13   19 1
    20   13   14 1
    21   14   15 am
    22   14   23 1
    23   15   16 2
    24   15   17 1
    25   17   18 1
    26   17   19 1
    27   17   20 1
    28   20   21 1
    29   20   34 1
    30   20   35 1
    31   21   22 2
    32   21   42 1
    33   23   24 1
    34   23   28 1
    35   23   25 1
    36   25   26 1
    37   25   36 1
    38   25   37 1
    39   26   27 1
    40   26   38 1
    41   26   39 1
    42   27   28 2
    43   27   40 1
    44   28   41 1
@<TRIPOS>MOLECULE
ZINC13279230
   47    48     0     0     0
SMALL
USER_CHARGES
2-[2-[2-[4-(dimethylsulfamoyl)phenoxy]ethoxy]phenoxy]acetic acid
@<TRIPOS>ATOM
      1 C1        -11.5678    3.0114   -1.7033 C.3       1 <0>         0.0900
      2 N1        -10.5817    3.7145   -2.5275 N.pl3     1 <0>        -1.0082
      3 C2        -10.6883    3.6780   -3.9882 C.3       1 <0>         0.0817
      4 S1         -9.3464    4.5506   -1.8081 S.o2      1 <0>         2.6986
      5 O1         -9.7885    4.8814   -0.4988 O.2       1 <0>        -0.9566
      6 O2         -8.9252    5.5357   -2.7416 O.2       1 <0>        -0.9553
      7 C3         -8.0005    3.4296   -1.6171 C.ar      1 <0>        -0.7205
      8 C4         -7.0580    3.3053   -2.6211 C.ar      1 <0>         0.0188
      9 C5         -6.0019    2.4272   -2.4738 C.ar      1 <0>        -0.1681
     10 C6         -5.8873    1.6697   -1.3171 C.ar      1 <0>         0.1948
     11 C7         -6.8374    1.7921   -0.3137 C.ar      1 <0>        -0.2322
     12 C8         -7.8883    2.6761   -0.4632 C.ar      1 <0>         0.0204
     13 O3         -4.8492    0.8051   -1.1698 O.3       1 <0>        -0.2942
     14 C9         -4.7949    0.0579    0.0471 C.3       1 <0>         0.0577
     15 C10        -3.5667   -0.8544    0.0311 C.3       1 <0>         0.0599
     16 O4         -2.3810   -0.0568    0.0240 O.3       1 <0>        -0.2901
     17 C11        -1.1925   -0.7177    0.0096 C.ar      1 <0>         0.0905
     18 C12        -1.1684   -2.1031    0.0020 C.ar      1 <0>        -0.1758
     19 C13         0.0406   -2.7733   -0.0131 C.ar      1 <0>        -0.1350
     20 C14         1.2274   -2.0643   -0.0211 C.ar      1 <0>        -0.1131
     21 C15         1.2104   -0.6820   -0.0189 C.ar      1 <0>        -0.1833
     22 C16         0.0021   -0.0041    0.0020 C.ar      1 <0>         0.1169
     23 O5         -0.0164    1.3557    0.0095 O.3       1 <0>        -0.2752
     24 C17         1.2479    2.0217    0.0010 C.3       1 <0>         0.0166
     25 C18         1.0302    3.5129    0.0111 C.2       1 <0>         0.4689
     26 O6         -0.0924    3.9595    0.0242 O.co2     1 <0>        -0.6100
     27 H1        -12.0757    3.7259   -1.0556 H         1 <0>         0.0682
     28 H2        -12.2981    2.5226   -2.3482 H         1 <0>         0.0806
     29 H3        -11.0633    2.2624   -1.0929 H         1 <0>         0.0590
     30 H4        -10.1302    2.8239   -4.3720 H         1 <0>         0.0560
     31 H5        -11.7361    3.5853   -4.2738 H         1 <0>         0.0765
     32 H6        -10.2778    4.5974   -4.4056 H         1 <0>         0.0844
     33 H7         -7.1475    3.8955   -3.5212 H         1 <0>         0.1461
     34 H8         -5.2657    2.3307   -3.2581 H         1 <0>         0.1440
     35 H9         -6.7529    1.2002    0.5857 H         1 <0>         0.1382
     36 H10        -8.6254    2.7756    0.3199 H         1 <0>         0.1410
     37 H11        -5.6962   -0.5478    0.1420 H         1 <0>         0.0868
     38 H12        -4.7272    0.7435    0.8918 H         1 <0>         0.0824
     39 H13        -3.5898   -1.4791   -0.8619 H         1 <0>         0.0721
     40 H14        -3.5732   -1.4880    0.9180 H         1 <0>         0.0840
     41 H15        -2.0942   -2.6593    0.0075 H         1 <0>         0.1283
     42 H16         0.0580   -3.8532   -0.0191 H         1 <0>         0.1213
     43 H17         2.1699   -2.5915   -0.0333 H         1 <0>         0.1228
     44 H18         2.1389   -0.1305   -0.0297 H         1 <0>         0.1364
     45 H19         1.8173    1.7317    0.8840 H         1 <0>         0.0657
     46 H20         1.8003    1.7413   -0.8958 H         1 <0>         0.0659
     47 O7          2.0835    4.3450    0.0055 O.co2     1 <0>        -0.7569
@<TRIPOS>BOND
     1    1    2 1
     2    1   27 1
     3    1   28 1
     4    1   29 1
     5    2    3 1
     6    2    4 1
     7    3   30 1
     8    3   31 1
     9    3   32 1
    10    4    5 2
    11    4    6 2
    12    4    7 1
    13    7   12 ar
    14    7    8 ar
    15    8    9 ar
    16    8   33 1
    17    9   10 ar
    18    9   34 1
    19   10   11 ar
    20   10   13 1
    21   11   12 ar
    22   11   35 1
    23   12   36 1
    24   13   14 1
    25   14   15 1
    26   14   37 1
    27   14   38 1
    28   15   16 1
    29   15   39 1
    30   15   40 1
    31   16   17 1
    32   17   22 ar
    33   17   18 ar
    34   18   19 ar
    35   18   41 1
    36   19   20 ar
    37   19   42 1
    38   20   21 ar
    39   20   43 1
    40   21   22 ar
    41   21   44 1
    42   22   23 1
    43   23   24 1
    44   24   25 1
    45   24   45 1
    46   24   46 1
    47   25   26 2
    48   25   47 1
@<TRIPOS>MOLECULE
ZINC31332917
   56    57     0     0     0
SMALL
USER_CHARGES
5-[(2E,4E)-5-(1,3-diethyl-4,6-dioxo-2-thioxo-hexahydropyrimidin-5-yl)penta-2,4-dienylidene]-1,3-diethyl-2-thioxo-hexahydropyrimidine-4,6-dione
@<TRIPOS>ATOM
      1 C1         -3.0896    2.1326   -3.8794 C.3       1 <0>        -0.1584
      2 C2         -2.1088    3.0809   -3.1868 C.3       1 <0>         0.0804
      3 N1         -1.5949    2.4482   -1.9695 N.pl3     1 <0>        -0.5135
      4 C3         -0.4756    1.6973   -2.0443 C.2       1 <0>         0.5187
      5 O1          0.1064    1.5394   -3.0961 O.3       1 <0>        -0.5257
      6 C4          0.0267    1.0580   -0.7636 C.2       1 <0>        -0.4629
      7 C5         -0.7929    1.3303    0.4836 C.2       1 <0>         0.5183
      8 O2         -0.4776    0.8638    1.5574 O.2       1 <0>        -0.5265
      9 N2         -1.8833    2.1102    0.3596 N.am      1 <0>        -0.5127
     10 C6         -2.2492    2.6315   -0.8170 C.2       1 <0>         0.5606
     11 S1         -3.6573    3.6047   -0.8501 S.2       1 <0>        -0.6513
     12 C7         -2.6950    2.3937    1.5457 C.3       1 <0>         0.0806
     13 C8         -3.7787    1.3233    1.6898 C.3       1 <0>        -0.1585
     14 C9          1.4318    1.5437   -0.5167 C.2       1 <0>         0.0536
     15 C10         2.4494    0.6749   -0.5151 C.2       1 <0>        -0.1859
     16 C11         3.7691    1.1312   -0.2833 C.2       1 <0>         0.0563
     17 C12         4.8059    0.2460   -0.2816 C.2       1 <0>        -0.2678
     18 C13         6.1100    0.6969   -0.0525 C.2       1 <0>         0.1525
     19 C14         7.1559   -0.2161    0.0376 C.2       1 <0>        -0.3572
     20 C15         6.9101   -1.6691    0.0418 C.2       1 <0>         0.5589
     21 O3          5.7791   -2.1117   -0.0339 O.2       1 <0>        -0.4677
     22 N3          7.9731   -2.4953    0.1265 N.am      1 <0>        -0.5123
     23 C16         9.2235   -2.0211    0.2167 C.2       1 <0>         0.5432
     24 S2         10.5105   -3.1446    0.3282 S.2       1 <0>        -0.5542
     25 N4          9.5198   -0.7138    0.2238 N.am      1 <0>        -0.5141
     26 C17         8.5574    0.2276    0.1392 C.2       1 <0>         0.5628
     27 O4          8.8390    1.4114    0.1462 O.2       1 <0>        -0.4876
     28 C18        10.9208   -0.2980    0.3252 C.3       1 <0>         0.0852
     29 C19        11.2993   -0.1358    1.7988 C.3       1 <0>        -0.1642
     30 C20         7.7553   -3.9440    0.1261 C.3       1 <0>         0.0843
     31 C21         7.5696   -4.4322    1.5642 C.3       1 <0>        -0.1645
     32 H1         -3.4755    2.6077   -4.7934 H         1 <0>         0.0709
     33 H2         -3.9261    1.9103   -3.2005 H         1 <0>         0.0672
     34 H3         -2.5724    1.1980   -4.1422 H         1 <0>         0.0553
     35 H4         -1.2723    3.3032   -3.8657 H         1 <0>         0.0904
     36 H5         -2.6260    4.0155   -2.9240 H         1 <0>         0.1183
     37 H6         -2.0532    2.3883    2.4390 H         1 <0>         0.0905
     38 H7         -3.1671    3.3815    1.4394 H         1 <0>         0.1184
     39 H8         -4.3882    1.5362    2.5804 H         1 <0>         0.0709
     40 H9         -3.3065    0.3355    1.7961 H         1 <0>         0.0554
     41 H10        -4.4205    1.3287    0.7964 H         1 <0>         0.0672
     42 H11         1.6208    2.6125   -0.3378 H         1 <0>         0.0733
     43 H12         2.2604   -0.3939   -0.6939 H         1 <0>         0.1408
     44 H13         3.9581    2.2000   -0.1045 H         1 <0>         0.1181
     45 H14         4.6169   -0.8228   -0.4604 H         1 <0>         0.1731
     46 H15         6.3086    1.7733    0.0564 H         1 <0>         0.1462
     47 H16        11.5642   -1.0613   -0.1368 H         1 <0>         0.1266
     48 H17        11.0574    0.6609   -0.1961 H         1 <0>         0.1015
     49 H18        12.3513    0.1764    1.8749 H         1 <0>         0.0808
     50 H19        11.1628   -1.0948    2.3201 H         1 <0>         0.0698
     51 H20        10.6559    0.6275    2.2607 H         1 <0>         0.0567
     52 H21         6.8548   -4.1792   -0.4602 H         1 <0>         0.1040
     53 H22         8.6258   -4.4456   -0.3219 H         1 <0>         0.1261
     54 H23         7.4061   -5.5200    1.5639 H         1 <0>         0.0814
     55 H24         6.6991   -3.9306    2.0121 H         1 <0>         0.0586
     56 H25         8.4702   -4.1969    2.1504 H         1 <0>         0.0684
@<TRIPOS>BOND
     1    1    2 1
     2    1   32 1
     3    1   33 1
     4    1   34 1
     5    2    3 1
     6    2   35 1
     7    2   36 1
     8    3   10 1
     9    3    4 1
    10    4    5 1
    11    4    6 2
    12    6    7 1
    13    6   14 1
    14    7    8 2
    15    7    9 am
    16    9   10 1
    17    9   12 1
    18   10   11 2
    19   12   13 1
    20   12   37 1
    21   12   38 1
    22   13   39 1
    23   13   40 1
    24   13   41 1
    25   14   15 2
    26   14   42 1
    27   15   16 1
    28   15   43 1
    29   16   17 2
    30   16   44 1
    31   17   18 1
    32   17   45 1
    33   18   19 2
    34   18   46 1
    35   19   26 1
    36   19   20 1
    37   20   21 2
    38   20   22 am
    39   22   23 1
    40   22   30 1
    41   23   24 2
    42   23   25 1
    43   25   26 am
    44   25   28 1
    45   26   27 2
    46   28   29 1
    47   28   47 1
    48   28   48 1
    49   29   49 1
    50   29   50 1
    51   29   51 1
    52   30   31 1
    53   30   52 1
    54   30   53 1
    55   31   54 1
    56   31   55 1
    57   31   56 1
@<TRIPOS>MOLECULE
ZINC39701007
   59    63     0     0     0
SMALL
USER_CHARGES

@<TRIPOS>ATOM
      1 C1         -0.0187    1.5258    0.0104 C.3       1 <0>        -0.1384
      2 C2          0.0021   -0.0041    0.0020 C.3       1 <0>        -0.0799
      3 H1          0.5185   -0.3831   -0.8799 H         1 <0>         0.0837
      4 C3          0.6324   -0.5609    1.3002 C.3       1 <0>        -0.0191
      5 H2          1.1634   -1.4904    1.0948 H         1 <0>         0.0924
      6 N1         -0.5011   -0.8093    2.1984 N.2       1 <0>        -0.4208
      7 C4         -1.6159   -0.8276    1.5848 C.2       1 <0>         0.1055
      8 C5         -1.4304   -0.5828    0.1025 C.3       1 <0>        -0.1476
      9 C6         -1.5340   -1.8756   -0.6649 C.2       1 <0>         0.3989
     10 O1         -0.5605   -2.5935   -0.7799 O.2       1 <0>        -0.4573
     11 C7         -2.7563   -2.2508   -1.2474 C.2       1 <0>        -0.2484
     12 C8         -2.8496   -3.4156   -1.9388 C.2       1 <0>         0.0321
     13 C9         -4.1240   -3.8067   -2.5461 C.2       1 <0>        -0.2054
     14 C10        -5.3132   -3.0991   -2.5092 C.2       1 <0>         0.0895
     15 N2         -6.2335   -3.8069   -3.1871 N.pl3     1 <0>        -0.3104
     16 N3         -5.6582   -4.9836   -3.6744 N.2       1 <0>        -0.2740
     17 C11        -4.3934   -5.0249   -3.3210 C.2       1 <0>         0.1576
     18 C12        -3.4238   -6.0990   -3.6400 C.ar      1 <0>        -0.0188
     19 C13        -2.0855   -5.7854   -3.8752 C.ar      1 <0>        -0.0836
     20 C14        -1.1851   -6.7866   -4.1727 C.ar      1 <0>        -0.1087
     21 C15        -1.6055   -8.1083   -4.2391 C.ar      1 <0>         0.0648
     22 C16        -2.9390   -8.4274   -4.0031 C.ar      1 <0>         0.0480
     23 C17        -3.8459   -7.4262   -3.7000 C.ar      1 <0>        -0.0791
     24 O2         -3.3660   -9.7190   -4.0565 O.3       1 <0>        -0.3059
     25 C18        -2.5092  -10.6532   -4.7219 C.3       1 <0>         0.0206
     26 C19        -1.0745  -10.4263   -4.2267 C.3       1 <0>         0.0190
     27 O3         -0.7005   -9.0800   -4.5386 O.3       1 <0>        -0.3040
     28 C20        -7.5673   -3.4232   -3.3759 C.ar      1 <0>         0.1543
     29 C21        -8.0279   -2.2244   -2.8477 C.ar      1 <0>        -0.1388
     30 C22        -9.3435   -1.8487   -3.0360 C.ar      1 <0>        -0.0911
     31 C23       -10.2018   -2.6649   -3.7498 C.ar      1 <0>        -0.1276
     32 C24        -9.7463   -3.8595   -4.2767 C.ar      1 <0>        -0.0961
     33 C25        -8.4303   -4.2382   -4.0968 C.ar      1 <0>        -0.1171
     34 C26        -2.9484   -1.0633    2.2479 C.3       1 <0>        -0.0871
     35 C27         1.5690    0.4535    1.9042 C.2       1 <0>         0.5159
     36 O4          1.2713    1.0143    2.9451 O.co2     1 <0>        -0.6780
     37 O5          2.6245    0.7134    1.3520 O.co2     1 <0>        -0.6984
     38 H3          1.0039    1.9031    0.0027 H         1 <0>         0.0752
     39 H4         -0.5459    1.8868   -0.8726 H         1 <0>         0.0446
     40 H5         -0.5289    1.8773    0.9072 H         1 <0>         0.0553
     41 H6         -3.4159   -1.9497    1.8192 H         1 <0>         0.0691
     42 H7         -3.6216   -1.6127   -1.1452 H         1 <0>         0.1273
     43 H8         -1.9843   -4.0537   -2.0410 H         1 <0>         0.1407
     44 H9         -5.4732   -2.1483   -2.0225 H         1 <0>         0.1909
     45 H10        -1.7544   -4.7586   -3.8247 H         1 <0>         0.1423
     46 H11        -0.1491   -6.5418   -4.3552 H         1 <0>         0.1446
     47 H12        -4.8809   -7.6727   -3.5146 H         1 <0>         0.1397
     48 H13        -2.8224  -11.6706   -4.4875 H         1 <0>         0.1229
     49 H14        -2.5561  -10.4925   -5.7989 H         1 <0>         0.0782
     50 H15        -1.0291  -10.5801   -3.1486 H         1 <0>         0.0801
     51 H16        -0.3990  -11.1205   -4.7264 H         1 <0>         0.1236
     52 H17        -7.3582   -1.5867   -2.2898 H         1 <0>         0.1330
     53 H18        -9.7025   -0.9166   -2.6252 H         1 <0>         0.1351
     54 H19       -11.2301   -2.3689   -3.8958 H         1 <0>         0.1293
     55 H20       -10.4192   -4.4951   -4.8331 H         1 <0>         0.1323
     56 H21        -8.0740   -5.1692   -4.5123 H         1 <0>         0.1385
     57 H22        -2.8007   -1.2118    3.3176 H         1 <0>         0.0760
     58 H23        -2.1614    0.1392   -0.2614 H         1 <0>         0.1017
     59 H24        -3.5925   -0.1989    2.0866 H         1 <0>         0.0731
@<TRIPOS>BOND
     1    1    2 1
     2    1   38 1
     3    1   39 1
     4    1   40 1
     5    2    3 1
     6    2    4 1
     7    2    8 1
     8    4    5 1
     9    4   35 1
    10    4    6 1
    11    6    7 2
    12    7    8 1
    13    7   34 1
    14    8    9 1
    15    8   58 1
    16    9   10 2
    17    9   11 1
    18   11   12 2
    19   11   42 1
    20   12   13 1
    21   12   43 1
    22   13   17 1
    23   13   14 2
    24   14   15 1
    25   14   44 1
    26   15   16 1
    27   15   28 1
    28   16   17 2
    29   17   18 1
    30   18   23 ar
    31   18   19 ar
    32   19   20 ar
    33   19   45 1
    34   20   21 ar
    35   20   46 1
    36   21   27 1
    37   21   22 ar
    38   22   23 ar
    39   22   24 1
    40   23   47 1
    41   24   25 1
    42   25   26 1
    43   25   48 1
    44   25   49 1
    45   26   27 1
    46   26   50 1
    47   26   51 1
    48   28   33 ar
    49   28   29 ar
    50   29   30 ar
    51   29   52 1
    52   30   31 ar
    53   30   53 1
    54   31   32 ar
    55   31   54 1
    56   32   33 ar
    57   32   55 1
    58   33   56 1
    59   34   57 1
    60   34   59 1
    61   34   41 1
    62   35   36 2
    63   35   37 1
@<TRIPOS>MOLECULE
ZINC61577264
   42    45     0     0     0
SMALL
USER_CHARGES

@<TRIPOS>ATOM
      1 C1         -0.0184    1.5028    0.0103 C.3       1 <0>        -0.0864
      2 C2          0.0021   -0.0041    0.0020 C.2       1 <0>         0.0389
      3 C3          0.0080   -0.7765   -1.0965 C.2       1 <0>        -0.1704
      4 C4          0.0298   -2.1687   -0.6261 C.2       1 <0>        -0.2884
      5 C5          0.0351   -2.1033    0.7540 C.2       1 <0>         0.1534
      6 N1          0.0235   -0.8032    1.1126 N.pl3     1 <0>        -0.3190
      7 C6          0.0288   -0.3402    2.4257 C.2       1 <0>         0.3120
      8 N2          0.0561   -1.1046    3.5368 N.2       1 <0>        -0.4074
      9 N3          0.0515   -0.2182    4.6260 N.2       1 <0>        -0.3888
     10 C7          0.0227    0.9914    4.1324 C.2       1 <0>         0.1182
     11 N4          0.0139    0.9189    2.8018 N.2       1 <0>        -0.6115
     12 C8          0.0554   -3.2802    1.6951 C.3       1 <0>        -0.0975
     13 C9          0.0424   -3.3782   -1.4516 C.2       1 <0>         0.4555
     14 O1          0.0599   -4.4716   -0.9256 O.2       1 <0>        -0.4685
     15 C10         0.0338   -3.2650   -2.9543 C.3       1 <0>        -0.1658
     16 S1          0.0530   -4.9249   -3.6858 S.3       1 <0>         0.0956
     17 C11         0.0408   -4.6256   -5.4222 C.2       1 <0>         0.2117
     18 N5          0.0277   -3.4502   -6.0133 N.2       1 <0>        -0.3305
     19 N6          0.0224   -3.5887   -7.2899 N.2       1 <0>        -0.0256
     20 N7          0.0315   -4.8381   -7.6067 N.2       1 <0>        -0.0787
     21 N8          0.0490   -5.5637   -6.4026 N.pl3     1 <0>        -0.3162
     22 C12         0.0687   -6.9572   -6.2480 C.ar      1 <0>         0.1237
     23 C13         0.7660   -7.5301   -5.1931 C.ar      1 <0>        -0.1106
     24 C14         0.7833   -8.9030   -5.0431 C.ar      1 <0>        -0.0939
     25 C15         0.1074   -9.7068   -5.9427 C.ar      1 <0>        -0.1055
     26 C16        -0.5880   -9.1390   -6.9945 C.ar      1 <0>        -0.1028
     27 C17        -0.6137   -7.7664   -7.1463 C.ar      1 <0>        -0.0957
     28 H1          1.0042    1.8801    0.0026 H         1 <0>         0.0634
     29 H2         -0.5455    1.8639   -0.8728 H         1 <0>         0.0644
     30 H3         -0.5286    1.8543    0.9071 H         1 <0>         0.0967
     31 H4         -0.0016   -0.4409   -2.1230 H         1 <0>         0.1472
     32 H5          0.0118    1.9037    4.7102 H         1 <0>         0.1712
     33 H6          1.0879   -3.5495    1.9178 H         1 <0>         0.0737
     34 H7         -0.4583   -3.0153    2.6192 H         1 <0>         0.0957
     35 H8         -0.4485   -4.1268    1.2290 H         1 <0>         0.0851
     36 H9         -0.8650   -2.7376   -3.2738 H         1 <0>         0.1320
     37 H10         0.9148   -2.7132   -3.2822 H         1 <0>         0.1326
     38 H11         1.2947   -6.9029   -4.4905 H         1 <0>         0.1422
     39 H12         1.3256   -9.3493   -4.2226 H         1 <0>         0.1412
     40 H13         0.1229  -10.7801   -5.8238 H         1 <0>         0.1347
     41 H14        -1.1147   -9.7692   -7.6957 H         1 <0>         0.1372
     42 H15        -1.1606   -7.3233   -7.9654 H         1 <0>         0.1366
@<TRIPOS>BOND
     1    1    2 1
     2    1   28 1
     3    1   29 1
     4    1   30 1
     5    2    6 1
     6    2    3 2
     7    3    4 1
     8    3   31 1
     9    4    5 2
    10    4   13 1
    11    5    6 1
    12    5   12 1
    13    6    7 1
    14    7   11 2
    15    7    8 1
    16    8    9 1
    17    9   10 2
    18   10   11 1
    19   10   32 1
    20   12   33 1
    21   12   34 1
    22   12   35 1
    23   13   14 2
    24   13   15 1
    25   15   16 1
    26   15   36 1
    27   15   37 1
    28   16   17 1
    29   17   21 1
    30   17   18 2
    31   18   19 1
    32   19   20 2
    33   20   21 1
    34   21   22 1
    35   22   27 ar
    36   22   23 ar
    37   23   24 ar
    38   23   38 1
    39   24   25 ar
    40   24   39 1
    41   25   26 ar
    42   25   40 1
    43   26   27 ar
    44   26   41 1
    45   27   42 1
@<TRIPOS>MOLECULE
ZINC08619360
   45    47     0     0     0
SMALL
USER_CHARGES
[4-acetoxy-2-(acetoxymethyl)-5-(6-sulfanylpurin-9-yl)-tetrahydrofuran-3-yl] acetate
@<TRIPOS>ATOM
      1 C1          4.3056    3.9472    5.1194 C.3       1 <0>        -0.1473
      2 C2          4.1451    3.1064    3.8791 C.2       1 <0>         0.4624
      3 O1          5.0567    2.4105    3.4988 O.2       1 <0>        -0.5162
      4 O2          2.9893    3.1305    3.1969 O.3       1 <0>        -0.3465
      5 C3          2.9057    2.2954    2.0120 C.3       1 <0>         0.0745
      6 C4          1.5247    2.4539    1.3728 C.3       1 <0>         0.0528
      7 H1          1.3016    3.5077    1.2058 H         1 <0>         0.1158
      8 C5          1.4551    1.6721    0.0423 C.3       1 <0>         0.0650
      9 H2          1.6182    2.3410   -0.8028 H         1 <0>         0.1303
     10 C6          0.0179    1.1053    0.0146 C.3       1 <0>         0.0588
     11 H3          0.0374    0.0157   -0.0050 H         1 <0>         0.1318
     12 C7         -0.6107    1.6118    1.3317 C.3       1 <0>         0.2986
     13 H4         -1.2672    0.8519    1.7556 H         1 <0>         0.1506
     14 O3          0.5120    1.8518    2.2080 O.3       1 <0>        -0.3266
     15 N1         -1.3507    2.8545    1.0988 N.pl3     1 <0>        -0.4894
     16 C8         -0.8995    4.1187    1.3368 C.2       1 <0>         0.2080
     17 N2         -1.8159    4.9854    1.0160 N.2       1 <0>        -0.4185
     18 C9         -2.9099    4.3345    0.5532 C.ar      1 <0>        -0.0651
     19 C10        -2.6227    2.9598    0.5956 C.ar      1 <0>         0.2929
     20 N3         -3.5482    2.0939    0.1951 N.ar      1 <0>        -0.5829
     21 C11        -4.7152    2.5146   -0.2458 C.ar      1 <0>         0.3260
     22 N4         -5.0292    3.7954   -0.3091 N.ar      1 <0>        -0.5599
     23 C12        -4.1696    4.7348    0.0747 C.ar      1 <0>         0.4045
     24 O4         -0.7102    1.6206   -1.1310 O.3       1 <0>        -0.3349
     25 C13        -1.6878    0.8476   -1.6297 C.2       1 <0>         0.4789
     26 O5         -1.9271   -0.2240   -1.1256 O.2       1 <0>        -0.4985
     27 C14        -2.4868    1.3165   -2.8183 C.3       1 <0>        -0.1419
     28 O6          2.4275    0.5938    0.0310 O.3       1 <0>        -0.3402
     29 C15         3.6114    0.8469   -0.5487 C.2       1 <0>         0.4573
     30 O7          3.8279    1.9335   -1.0309 O.2       1 <0>        -0.5023
     31 C16         4.6704   -0.2241   -0.5983 C.3       1 <0>        -0.1469
     32 H5          3.5584    3.6536    5.8567 H         1 <0>         0.1027
     33 H6          5.3028    3.7976    5.5332 H         1 <0>         0.1018
     34 H7          4.1717    4.9987    4.8653 H         1 <0>         0.1030
     35 H8          3.0596    1.2529    2.2907 H         1 <0>         0.0905
     36 H9          3.6729    2.5980    1.2993 H         1 <0>         0.0906
     37 H10         0.0744    4.3647    1.7334 H         1 <0>         0.2087
     38 H11        -5.4430    1.7846   -0.5680 H         1 <0>         0.1848
     39 H12        -2.1298    2.2974   -3.1320 H         1 <0>         0.0860
     40 H13        -2.3687    0.6077   -3.6379 H         1 <0>         0.1036
     41 H14        -3.5398    1.3834   -2.5447 H         1 <0>         0.1103
     42 H15         4.2961   -1.1277   -0.1172 H         1 <0>         0.0943
     43 H16         4.9187   -0.4417   -1.6371 H         1 <0>         0.1091
     44 H17         5.5624    0.1225   -0.0765 H         1 <0>         0.1101
     45 S1         -4.6000    6.4411   -0.0138 S.3       1 <0>        -0.7866
@<TRIPOS>BOND
     1    1    2 1
     2    1   32 1
     3    1   33 1
     4    1   34 1
     5    2    3 2
     6    2    4 1
     7    4    5 1
     8    5    6 1
     9    5   35 1
    10    5   36 1
    11    6    7 1
    12    6   14 1
    13    6    8 1
    14    8    9 1
    15    8   10 1
    16    8   28 1
    17   10   11 1
    18   10   12 1
    19   10   24 1
    20   12   13 1
    21   12   14 1
    22   12   15 1
    23   15   19 1
    24   15   16 1
    25   16   17 2
    26   16   37 1
    27   17   18 1
    28   18   23 ar
    29   18   19 ar
    30   19   20 ar
    31   20   21 ar
    32   21   22 ar
    33   21   38 1
    34   22   23 ar
    35   23   45 1
    36   24   25 1
    37   25   26 2
    38   25   27 1
    39   27   39 1
    40   27   40 1
    41   27   41 1
    42   28   29 1
    43   29   30 2
    44   29   31 1
    45   31   42 1
    46   31   43 1
    47   31   44 1
@<TRIPOS>MOLECULE
ZINC13276525
   42    43     0     0     0
SMALL
USER_CHARGES
2-[[2-[5-(dimethylsulfamoyl)-2-oxo-1-pyridyl]acetyl]amino]benzoic acid
@<TRIPOS>ATOM
      1 C1          5.4029    8.5038   -2.4613 C.3       1 <0>         0.0911
      2 N1          4.2638    7.7059   -2.9218 N.pl3     1 <0>        -1.0055
      3 C2          3.0633    8.3709   -3.4346 C.3       1 <0>         0.0810
      4 S1          4.3331    6.0524   -2.8627 S.o2      1 <0>         2.7103
      5 O1          5.7104    5.7029   -2.8788 O.2       1 <0>        -0.9475
      6 O2          3.4139    5.5724   -3.8342 O.2       1 <0>        -0.9546
      7 C3          3.7071    5.5606   -1.2908 C.2       1 <0>        -0.7876
      8 C4          4.4455    5.8230   -0.1282 C.2       1 <0>         0.0383
      9 C5          3.9460    5.4359    1.0805 C.2       1 <0>        -0.2380
     10 C6          2.7000    4.7881    1.1344 C.2       1 <0>         0.5292
     11 O3          2.2387    4.4414    2.2099 O.2       1 <0>        -0.5262
     12 N2          2.0171    4.5454   -0.0006 N.am      1 <0>        -0.4740
     13 C7          2.5129    4.9296   -1.2046 C.2       1 <0>         0.2790
     14 C8          0.7217    3.8644    0.0653 C.3       1 <0>         0.0616
     15 C9          0.9305    2.3759   -0.0436 C.2       1 <0>         0.4949
     16 O4          2.0511    1.9281   -0.1644 O.2       1 <0>        -0.5249
     17 N3         -0.1279    1.5424   -0.0069 N.am      1 <0>        -0.6335
     18 C10         0.0713    0.1643    0.0097 C.ar      1 <0>         0.1732
     19 C11         1.2573   -0.3634    0.5023 C.ar      1 <0>        -0.1495
     20 C12         1.4506   -1.7299    0.5227 C.ar      1 <0>        -0.1026
     21 C13         0.4703   -2.5843    0.0436 C.ar      1 <0>        -0.1563
     22 C14        -0.7107   -2.0789   -0.4543 C.ar      1 <0>        -0.0580
     23 C15        -0.9233   -0.6979   -0.4767 C.ar      1 <0>        -0.1476
     24 C16        -2.1841   -0.1503   -1.0084 C.2       1 <0>         0.4985
     25 O5         -2.3272    1.0516   -1.1154 O.co2     1 <0>        -0.6381
     26 H1          6.0809    8.6843   -3.2954 H         1 <0>         0.0620
     27 H2          5.0451    9.4566   -2.0711 H         1 <0>         0.0748
     28 H3          5.9302    7.9640   -1.6747 H         1 <0>         0.0719
     29 H4          2.3701    8.5531   -2.6134 H         1 <0>         0.0568
     30 H5          3.3414    9.3200   -3.8927 H         1 <0>         0.0782
     31 H6          2.5853    7.7342   -4.1791 H         1 <0>         0.0859
     32 H7          5.3994    6.3258   -0.1892 H         1 <0>         0.1426
     33 H8          4.5000    5.6295    1.9872 H         1 <0>         0.1569
     34 H9          1.9481    4.7299   -2.1033 H         1 <0>         0.1854
     35 H10         0.0906    4.2038   -0.7560 H         1 <0>         0.1361
     36 H11         0.2379    4.0949    1.0145 H         1 <0>         0.1411
     37 H12        -1.0286    1.9025    0.0040 H         1 <0>         0.4287
     38 H13         2.0279    0.2959    0.8737 H         1 <0>         0.1385
     39 H14         2.3732   -2.1356    0.9107 H         1 <0>         0.1177
     40 H15         0.6332   -3.6518    0.0602 H         1 <0>         0.1178
     41 H16        -1.4711   -2.7491   -0.8272 H         1 <0>         0.1341
     42 O6         -3.1783   -0.9825   -1.3757 O.co2     1 <0>        -0.7417
@<TRIPOS>BOND
     1    1    2 1
     2    1   26 1
     3    1   27 1
     4    1   28 1
     5    2    3 1
     6    2    4 1
     7    3   29 1
     8    3   30 1
     9    3   31 1
    10    4    5 2
    11    4    6 2
    12    4    7 1
    13    7   13 2
    14    7    8 1
    15    8    9 2
    16    8   32 1
    17    9   10 1
    18    9   33 1
    19   10   11 2
    20   10   12 am
    21   12   13 1
    22   12   14 1
    23   13   34 1
    24   14   15 1
    25   14   35 1
    26   14   36 1
    27   15   16 2
    28   15   17 am
    29   17   18 1
    30   17   37 1
    31   18   23 ar
    32   18   19 ar
    33   19   20 ar
    34   19   38 1
    35   20   21 ar
    36   20   39 1
    37   21   22 ar
    38   21   40 1
    39   22   23 ar
    40   22   41 1
    41   23   24 1
    42   24   25 2
    43   24   42 1
@<TRIPOS>MOLECULE
ZINC19908855
   46    47     0     0     0
SMALL
USER_CHARGES
tetramethyl (1S,4S,5S,8R)-3,7-dihydroxybicyclo[3.3.1]nona-2,6-diene-2,4,6,8-tetracarboxylate
@<TRIPOS>ATOM
      1 C1         -3.8094   -1.9173   -2.6338 C.3       1 <0>         0.0287
      2 O1         -3.7594   -0.6836   -1.8698 O.3       1 <0>        -0.3431
      3 C2         -2.5633   -0.0849   -1.7566 C.2       1 <0>         0.4737
      4 O2         -1.5904   -0.5756   -2.2786 O.2       1 <0>        -0.4779
      5 C3         -2.4340    1.1991   -0.9784 C.3       1 <0>        -0.0962
      6 H1         -3.0870    1.9619   -1.4277 H         1 <0>         0.1638
      7 C4         -0.9753    1.6665   -1.0053 C.3       1 <0>         0.0107
      8 H2         -0.5986    1.7187   -2.0375 H         1 <0>         0.1098
      9 C5         -0.1389    0.6827   -0.1792 C.3       1 <0>        -0.1207
     10 C6         -0.5190    0.8632    1.2950 C.3       1 <0>        -0.0061
     11 H3         -0.0978    0.0491    1.9031 H         1 <0>         0.1215
     12 C7          0.0055    2.2241    1.7638 C.3       1 <0>        -0.0812
     13 H4          1.1050    2.2184    1.7952 H         1 <0>         0.1259
     14 C8         -0.4426    3.2965    0.8123 C.2       1 <0>         0.3285
     15 C9         -0.8774    3.0451   -0.4215 C.2       1 <0>        -0.4738
     16 C10        -1.2688    4.1410   -1.2277 C.2       1 <0>         0.5048
     17 O3         -1.2978    5.2626   -0.7572 O.2       1 <0>        -0.5216
     18 O4         -1.6096    3.9416   -2.5179 O.3       1 <0>        -0.3854
     19 C11        -1.9942    5.0925   -3.2726 C.3       1 <0>         0.0407
     20 O5         -0.4023    4.5781    1.2278 O.3       1 <0>        -0.6043
     21 C12        -0.5298    2.5204    3.1410 C.2       1 <0>         0.4568
     22 O6         -1.5271    3.1902    3.2703 O.2       1 <0>        -0.4538
     23 O7          0.1013    2.0402    4.2240 O.3       1 <0>        -0.3648
     24 C13        -0.4706    2.3653    5.5184 C.3       1 <0>         0.0310
     25 C14        -2.0102    0.8167    1.4535 C.3       1 <0>        -0.3502
     26 C15        -2.8662    0.9676    0.4440 C.2       1 <0>         0.1884
     27 O8         -4.1862    0.9102    0.7104 O.2       1 <0>        -0.5440
     28 C16        -2.5375    0.6007    2.7493 C.2       1 <0>         0.5313
     29 O9         -2.2138   -0.3875    3.3809 O.2       1 <0>        -0.4928
     30 O10        -3.3990    1.4908    3.2841 O.3       1 <0>        -0.3137
     31 C17        -3.8915    1.2095    4.5957 C.3       1 <0>         0.0317
     32 H5         -4.8410   -2.2989   -2.6468 H         1 <0>         0.1038
     33 H6         -3.1482   -2.6635   -2.1690 H         1 <0>         0.0657
     34 H7         -3.4769   -1.7241   -3.6644 H         1 <0>         0.0668
     35 H8         -0.3547   -0.3456   -0.5049 H         1 <0>         0.0870
     36 H9          0.9300    0.8970   -0.3258 H         1 <0>         0.1015
     37 H10        -2.2447    4.7902   -4.3002 H         1 <0>         0.0817
     38 H11        -1.1620    5.8115   -3.2944 H         1 <0>         0.0465
     39 H12        -2.8720    5.5616   -2.8041 H         1 <0>         0.0458
     40 H13         0.1404    1.9127    6.3133 H         1 <0>         0.0972
     41 H14        -1.4963    1.9719    5.5753 H         1 <0>         0.0562
     42 H15        -0.4891    3.4576    5.6472 H         1 <0>         0.0626
     43 H16        -2.7155    0.9383    0.6182 H         1 <0>         0.4485
     44 H17        -4.5789    2.0092    4.9085 H         1 <0>         0.1027
     45 H18        -3.0483    1.1544    5.3000 H         1 <0>         0.0572
     46 H19        -4.4264    0.2483    4.5882 H         1 <0>         0.0593
@<TRIPOS>BOND
     1    1    2 1
     2    1   32 1
     3    1   33 1
     4    1   34 1
     5    2    3 1
     6    3    4 2
     7    3    5 1
     8    5   26 1
     9    5    7 1
    10    5    6 1
    11    7    8 1
    12    7   15 1
    13    7    9 1
    14    9   10 1
    15    9   35 1
    16    9   36 1
    17   10   11 1
    18   10   12 1
    19   10   25 1
    20   12   13 1
    21   12   14 1
    22   12   21 1
    23   14   15 2
    24   14   20 1
    25   15   16 1
    26   16   17 2
    27   16   18 1
    28   18   19 1
    29   19   37 1
    30   19   38 1
    31   19   39 1
    32   21   22 2
    33   21   23 1
    34   23   24 1
    35   24   40 1
    36   24   41 1
    37   24   42 1
    38   25   28 1
    39   25   43 1
    40   25   26 1
    41   26   27 2
    42   28   29 2
    43   28   30 1
    44   30   31 1
    45   31   44 1
    46   31   45 1
    47   31   46 1
@<TRIPOS>MOLECULE
ZINC40075534
   49    51     0     0     0
SMALL
USER_CHARGES

@<TRIPOS>ATOM
      1 C1          0.8928   -4.1756   -4.8715 C.3       1 <0>        -0.0726
      2 C2          0.6542   -3.9738   -3.3973 C.2       1 <0>        -0.0041
      3 C3         -0.5533   -3.9873   -2.7881 C.2       1 <0>        -0.2262
      4 C4         -0.3308   -3.7615   -1.4221 C.2       1 <0>        -0.1582
      5 C5          1.0310   -3.6188   -1.2646 C.2       1 <0>        -0.0441
      6 O1          1.6039   -3.7579   -2.4782 O.3       1 <0>        -0.1284
      7 C6          1.7324   -3.3664   -0.0025 C.2       1 <0>         0.5653
      8 O2          1.1132   -3.3549    1.0469 O.2       1 <0>        -0.4804
      9 C7          3.1805   -3.1277   -0.0027 C.2       1 <0>        -0.4915
     10 C8          4.1508   -4.0540   -0.1763 C.2       1 <0>         0.2616
     11 C9          5.4702   -3.3947   -0.1060 C.2       1 <0>         0.5149
     12 O3          6.5393   -3.9600   -0.2246 O.2       1 <0>        -0.5354
     13 N1          5.3141   -2.0757    0.1087 N.am      1 <0>        -0.6095
     14 C10         3.8747   -1.7988    0.1844 C.3       1 <0>         0.2553
     15 H1          3.5814   -1.1080   -0.6062 H         1 <0>         0.1175
     16 C11         3.5317   -1.2201    1.5329 C.ar      1 <0>         0.0063
     17 C12         4.3533   -1.4621    2.6182 C.ar      1 <0>        -0.1138
     18 C13         4.0387   -0.9314    3.8550 C.ar      1 <0>        -0.0687
     19 C14         2.9026   -0.1582    4.0068 C.ar      1 <0>        -0.1340
     20 C15         2.0818    0.0845    2.9216 C.ar      1 <0>        -0.0554
     21 C16         2.3988   -0.4429    1.6835 C.ar      1 <0>        -0.0367
     22 N2          1.5225   -0.1788    0.5202 N.pl3     1 <0>         0.0435
     23 O4          0.5919    0.5859    0.6256 O.2       1 <0>        -0.1832
     24 O5          1.7373   -0.7277   -0.5354 O.3       1 <0>        -0.1433
     25 C17         6.3899   -1.0897    0.2376 C.3       1 <0>         0.1358
     26 C18         6.7262   -0.5186   -1.1414 C.3       1 <0>         0.0437
     27 O6          5.6035    0.2101   -1.6419 O.3       1 <0>        -0.3705
     28 C19         5.8139    0.7879   -2.9319 C.3       1 <0>         0.0638
     29 C20         4.5539    1.5396   -3.3656 C.3       1 <0>         0.0767
     30 O7          4.3328    2.6452   -2.4876 O.3       1 <0>        -0.5673
     31 O8          3.9449   -5.3762   -0.3816 O.3       1 <0>        -0.6570
     32 H2          1.9505   -4.0308   -5.0915 H         1 <0>         0.0760
     33 H3          0.5985   -5.1868   -5.1522 H         1 <0>         0.0818
     34 H4          0.3021   -3.4550   -5.4372 H         1 <0>         0.0830
     35 H5         -1.5100   -4.1425   -3.2647 H         1 <0>         0.1461
     36 H6         -1.0798   -3.7094   -0.6457 H         1 <0>         0.1485
     37 H7          5.2407   -2.0662    2.4997 H         1 <0>         0.1396
     38 H8          4.6801   -1.1211    4.7030 H         1 <0>         0.1365
     39 H9          2.6564    0.2559    4.9734 H         1 <0>         0.1399
     40 H10         1.1942    0.6882    3.0402 H         1 <0>         0.1466
     41 H11         6.0667   -0.2832    0.8958 H         1 <0>         0.0816
     42 H12         7.2740   -1.5694    0.6577 H         1 <0>         0.0971
     43 H13         7.5847    0.1480   -1.0591 H         1 <0>         0.0558
     44 H14         6.9638   -1.3343   -1.8243 H         1 <0>         0.0557
     45 H15         6.6534    1.4816   -2.8867 H         1 <0>         0.0509
     46 H16         6.0325   -0.0006   -3.6520 H         1 <0>         0.0619
     47 H17         4.6813    1.9048   -4.3847 H         1 <0>         0.0571
     48 H18         3.6973    0.8667   -3.3252 H         1 <0>         0.0608
     49 H19         3.5486    3.1682   -2.7034 H         1 <0>         0.3772
@<TRIPOS>BOND
     1    1    2 1
     2    1   32 1
     3    1   33 1
     4    1   34 1
     5    2    6 1
     6    2    3 2
     7    3    4 1
     8    3   35 1
     9    4    5 2
    10    4   36 1
    11    5    6 1
    12    5    7 1
    13    7    8 2
    14    7    9 1
    15    9   14 1
    16    9   10 2
    17   10   11 1
    18   10   31 1
    19   11   12 2
    20   11   13 am
    21   13   14 1
    22   13   25 1
    23   14   15 1
    24   14   16 1
    25   16   21 ar
    26   16   17 ar
    27   17   18 ar
    28   17   37 1
    29   18   19 ar
    30   18   38 1
    31   19   20 ar
    32   19   39 1
    33   20   21 ar
    34   20   40 1
    35   21   22 1
    36   22   23 2
    37   22   24 1
    38   25   26 1
    39   25   41 1
    40   25   42 1
    41   26   27 1
    42   26   43 1
    43   26   44 1
    44   27   28 1
    45   28   29 1
    46   28   45 1
    47   28   46 1
    48   29   30 1
    49   29   47 1
    50   29   48 1
    51   30   49 1
@<TRIPOS>MOLECULE
ZINC39950933
   44    46     0     0     0
SMALL
USER_CHARGES

@<TRIPOS>ATOM
      1 C1         -0.0173    1.4248    0.0099 C.3       1 <0>         0.0254
      2 O1          0.0021   -0.0041    0.0020 O.3       1 <0>        -0.3041
      3 C2          0.6263   -0.6188    1.0422 C.ar      1 <0>         0.1431
      4 C3          1.2023    0.1379    2.0514 C.ar      1 <0>        -0.2189
      5 C4          1.8370   -0.4860    3.1091 C.ar      1 <0>         0.0169
      6 C5          1.9002   -1.8657    3.1656 C.ar      1 <0>        -0.1742
      7 C6          1.3266   -2.6296    2.1604 C.ar      1 <0>         0.1462
      8 C7          0.6826   -2.0063    1.0982 C.ar      1 <0>         0.0310
      9 O2          0.1135   -2.7526    0.1126 O.3       1 <0>        -0.3138
     10 C8          0.9387   -3.0899   -1.0043 C.3       1 <0>         0.0353
     11 O3          1.3897   -3.9870    2.2166 O.3       1 <0>        -0.3036
     12 C9          2.0623   -4.5592    3.3400 C.3       1 <0>         0.0260
     13 C10         2.4621    0.3402    4.2034 C.3       1 <0>         0.1656
     14 H1          2.7954    1.3057    3.8227 H         1 <0>         0.1221
     15 N1          3.5701   -0.3877    4.8549 N.2       1 <0>        -0.3876
     16 C11         3.6441   -0.4489    6.1074 C.2       1 <0>         0.1606
     17 C12         2.5699    0.2396    6.9378 C.3       1 <0>        -0.0653
     18 S1          1.3038    0.5482    5.6268 S.3       1 <0>        -0.3624
     19 C13         4.7739   -1.1898    6.7750 C.3       1 <0>        -0.0323
     20 C14         5.6848   -1.7697    5.7238 C.2       1 <0>         0.4100
     21 O4          6.7702   -2.4786    6.0898 O.3       1 <0>        -0.6811
     22 N2          5.4225   -1.5857    4.4616 N.2       1 <0>        -0.6024
     23 C15         6.2467   -2.1104    3.5105 C.2       1 <0>         0.5117
     24 H2          5.3775   -1.5377    1.7028 H         1 <0>         0.4207
     25 N3          7.3369   -2.8213    3.7312 N.2       1 <0>        -0.5657
     26 C16         7.8895   -3.1672    2.5706 C.2       1 <0>         0.1869
     27 N4          7.1694   -2.6882    1.5906 N.2       1 <0>        -0.3825
     28 N5          6.0905   -2.0008    2.1697 N.pl3     1 <0>        -0.5153
     29 H3          1.0053    1.8021    0.0021 H         1 <0>         0.0563
     30 H4         -0.5445    1.7859   -0.8732 H         1 <0>         0.0996
     31 H5         -0.5275    1.7763    0.9067 H         1 <0>         0.0563
     32 H6          1.1554    1.2161    2.0107 H         1 <0>         0.1329
     33 H7          2.3972   -2.3494    3.9934 H         1 <0>         0.1446
     34 H8          0.3639   -3.6845   -1.7143 H         1 <0>         0.0889
     35 H9          1.2835   -2.1771   -1.4901 H         1 <0>         0.0429
     36 H10         1.7981   -3.6654   -0.6604 H         1 <0>         0.0452
     37 H11         2.0404   -5.6461    3.2617 H         1 <0>         0.0998
     38 H12         3.0971   -4.2169    3.3570 H         1 <0>         0.0638
     39 H13         1.5626   -4.2509    4.2584 H         1 <0>         0.0563
     40 H14         5.3377   -0.5016    7.4048 H         1 <0>         0.1014
     41 H15         2.1843   -0.4216    7.7139 H         1 <0>         0.1190
     42 H16         2.9357    1.1744    7.3626 H         1 <0>         0.1110
     43 H17         4.3684   -1.9944    7.3884 H         1 <0>         0.1015
     44 H18         8.7909   -3.7512    2.4568 H         1 <0>         0.1882
@<TRIPOS>BOND
     1    1    2 1
     2    1   29 1
     3    1   30 1
     4    1   31 1
     5    2    3 1
     6    3    8 ar
     7    3    4 ar
     8    4    5 ar
     9    4   32 1
    10    5    6 ar
    11    5   13 1
    12    6    7 ar
    13    6   33 1
    14    7    8 ar
    15    7   11 1
    16    8    9 1
    17    9   10 1
    18   10   34 1
    19   10   35 1
    20   10   36 1
    21   11   12 1
    22   12   37 1
    23   12   38 1
    24   12   39 1
    25   13   14 1
    26   13   18 1
    27   13   15 1
    28   15   16 2
    29   16   17 1
    30   16   19 1
    31   17   18 1
    32   17   41 1
    33   17   42 1
    34   19   20 1
    35   19   43 1
    36   19   40 1
    37   20   21 1
    38   20   22 2
    39   22   23 1
    40   23   25 2
    41   23   28 1
    42   24   28 1
    43   25   26 1
    44   26   44 1
    45   26   27 2
    46   27   28 1
@<TRIPOS>MOLECULE
ZINC06180800
   43    44     0     0     0
SMALL
USER_CHARGES
2-methoxyimino-2-[5-[(3,4,5-trimethoxyphenyl)methyleneamino]-3-thienyl]-acetic acid
@<TRIPOS>ATOM
      1 C1         -2.9046    0.4678   -0.0863 C.3       1 <0>         0.0230
      2 O1         -1.7703   -0.3835    0.0886 O.3       1 <0>        -0.3027
      3 C2         -0.5536    0.2183    0.1718 C.ar      1 <0>         0.1424
      4 C3         -0.4570    1.5946    0.0869 C.ar      1 <0>        -0.2036
      5 C4          0.7951    2.2129    0.1727 C.ar      1 <0>         0.0075
      6 C5          1.9452    1.4350    0.3446 C.ar      1 <0>        -0.1849
      7 C6          1.8409    0.0592    0.4277 C.ar      1 <0>         0.1434
      8 C7          0.5932   -0.5525    0.3420 C.ar      1 <0>         0.0424
      9 O2          0.4945   -1.9061    0.4242 O.3       1 <0>        -0.3127
     10 C8          0.5769   -2.6381   -0.8003 C.3       1 <0>         0.0358
     11 O3          2.9584   -0.6978    0.5939 O.3       1 <0>        -0.3033
     12 C9          4.2055   -0.0047    0.6740 C.3       1 <0>         0.0214
     13 C10         0.9021    3.6766    0.0823 C.2       1 <0>         0.1747
     14 N1          2.0712    4.2519    0.1625 N.2       1 <0>        -0.3888
     15 C11         2.1702    5.6062    0.0789 C.2       1 <0>        -0.0317
     16 C12         2.9045    6.4622    0.8556 C.2       1 <0>        -0.0622
     17 C13         2.8314    7.8177    0.5593 C.2       1 <0>        -0.1064
     18 C14         2.0293    8.2130   -0.4911 C.2       1 <0>        -0.1513
     19 S1          1.3826    6.7145   -1.0745 S.3       1 <0>         0.0471
     20 C15         3.5937    8.8106    1.3490 C.2       1 <0>         0.1532
     21 N2          3.1005    9.9989    1.5515 N.2       1 <0>        -0.2808
     22 O4          1.7843   10.3013    1.1256 O.3       1 <0>        -0.2632
     23 C16         1.3739   11.6398    1.4119 C.3       1 <0>         0.0470
     24 C17         4.9172    8.4529    1.9088 C.2       1 <0>         0.5132
     25 O5          5.3770    7.3450    1.7200 O.co2     1 <0>        -0.6043
     26 H1         -3.8092   -0.1381   -0.1373 H         1 <0>         0.1019
     27 H2         -2.9754    1.1563    0.7558 H         1 <0>         0.0595
     28 H3         -2.7944    1.0346   -1.0108 H         1 <0>         0.0578
     29 H4         -1.3465    2.1916   -0.0499 H         1 <0>         0.1415
     30 H5          2.9134    1.9089    0.4112 H         1 <0>         0.1525
     31 H6          0.4839   -3.7042   -0.5932 H         1 <0>         0.0913
     32 H7         -0.2281   -2.3256   -1.4653 H         1 <0>         0.0440
     33 H8          1.5379   -2.4430   -1.2763 H         1 <0>         0.0450
     34 H9          4.1869    0.6800    1.5219 H         1 <0>         0.0634
     35 H10         5.0134   -0.7245    0.8060 H         1 <0>         0.1034
     36 H11         4.3676    0.5589   -0.2447 H         1 <0>         0.0604
     37 H12         0.0134    4.2758   -0.0504 H         1 <0>         0.1170
     38 H13         3.5167    6.0978    1.6673 H         1 <0>         0.1614
     39 H14         1.8516    9.2115   -0.8622 H         1 <0>         0.1892
     40 H15         1.4105   11.8088    2.4881 H         1 <0>         0.0460
     41 H16         2.0427   12.3399    0.9113 H         1 <0>         0.0449
     42 H17         0.3553   11.7918    1.0547 H         1 <0>         0.0854
     43 O6          5.6109    9.3564    2.6274 O.co2     1 <0>        -0.7197
@<TRIPOS>BOND
     1    1    2 1
     2    1   26 1
     3    1   27 1
     4    1   28 1
     5    2    3 1
     6    3    8 ar
     7    3    4 ar
     8    4    5 ar
     9    4   29 1
    10    5    6 ar
    11    5   13 1
    12    6    7 ar
    13    6   30 1
    14    7    8 ar
    15    7   11 1
    16    8    9 1
    17    9   10 1
    18   10   31 1
    19   10   32 1
    20   10   33 1
    21   11   12 1
    22   12   34 1
    23   12   35 1
    24   12   36 1
    25   13   14 2
    26   13   37 1
    27   14   15 1
    28   15   19 1
    29   15   16 2
    30   16   17 1
    31   16   38 1
    32   17   18 2
    33   17   20 1
    34   18   19 1
    35   18   39 1
    36   20   21 2
    37   20   24 1
    38   21   22 1
    39   22   23 1
    40   23   40 1
    41   23   41 1
    42   23   42 1
    43   24   25 2
    44   24   43 1
@<TRIPOS>MOLECULE
ZINC05549372
   48    50     0     0     0
SMALL
USER_CHARGES
7-[(3,4-diethoxyphenyl)methyl]-1,3-dimethyl-8-sulfanyl-purine-2,6-dione
@<TRIPOS>ATOM
      1 C1          7.2883    4.1675   -1.1331 C.3       1 <0>        -0.1509
      2 C2          5.8631    3.6429   -1.3190 C.3       1 <0>         0.0505
      3 O1          5.2697    3.4126   -0.0395 O.3       1 <0>        -0.3079
      4 C3          3.9941    2.9415   -0.0264 C.ar      1 <0>         0.1029
      5 C4          3.3285    2.7061   -1.2188 C.ar      1 <0>        -0.1808
      6 C5          2.0316    2.2276   -1.2036 C.ar      1 <0>        -0.0768
      7 C6          1.3960    1.9824   -0.0006 C.ar      1 <0>        -0.1023
      8 C7          2.0525    2.2201    1.1925 C.ar      1 <0>        -0.1474
      9 C8          3.3541    2.6952    1.1844 C.ar      1 <0>         0.0854
     10 O2          4.0032    2.9246    2.3573 O.3       1 <0>        -0.3090
     11 C9          3.2843    2.6492    3.5612 C.3       1 <0>         0.0532
     12 C10         4.1701    2.9658    4.7679 C.3       1 <0>        -0.1491
     13 C11        -0.0178    1.4608    0.0101 C.3       1 <0>         0.1623
     14 N1          0.0021   -0.0041    0.0020 N.pl3     1 <0>        -0.4286
     15 C12         0.0240   -0.8388    1.1117 C.2       1 <0>        -0.1979
     16 C13         0.0365   -2.1409    0.6223 C.2       1 <0>         0.3228
     17 N2          0.0227   -2.0710   -0.7093 N.2       1 <0>        -0.5234
     18 C14        -0.0033   -0.8102   -1.0939 C.2       1 <0>         0.4688
     19 S1         -0.0358   -0.2557   -2.7661 S.2       1 <0>        -0.7656
     20 N3          0.0589   -3.1927    1.5244 N.am      1 <0>        -0.5087
     21 C15         0.0681   -2.9458    2.8479 C.2       1 <0>         0.7079
     22 O3          0.0873   -3.8806    3.6254 O.2       1 <0>        -0.5588
     23 N4          0.0561   -1.6915    3.3308 N.am      1 <0>        -0.5557
     24 C16         0.0342   -0.6277    2.5014 C.2       1 <0>         0.5944
     25 O4          0.0231    0.5045    2.9523 O.3       1 <0>        -0.5419
     26 C17         0.0663   -1.4762    4.7799 C.3       1 <0>         0.0857
     27 C18         0.0725   -4.5744    1.0374 C.3       1 <0>         0.0880
     28 H1          7.7451    4.3448   -2.1179 H         1 <0>         0.0762
     29 H2          7.8833    3.4249   -0.5812 H         1 <0>         0.0650
     30 H3          7.2611    5.1100   -0.5665 H         1 <0>         0.0647
     31 H4          5.2681    4.3855   -1.8709 H         1 <0>         0.0608
     32 H5          5.8903    2.7005   -1.8856 H         1 <0>         0.0614
     33 H6          3.8228    2.8968   -2.1599 H         1 <0>         0.1327
     34 H7          1.5140    2.0445   -2.1337 H         1 <0>         0.1476
     35 H8          1.5522    2.0316    2.1310 H         1 <0>         0.1454
     36 H9          2.3783    3.2720    3.5979 H         1 <0>         0.0608
     37 H10         3.0000    1.5868    3.5837 H         1 <0>         0.0601
     38 H11         3.6167    2.7538    5.6946 H         1 <0>         0.0763
     39 H12         4.4543    4.0282    4.7454 H         1 <0>         0.0640
     40 H13         5.0761    2.3430    4.7312 H         1 <0>         0.0638
     41 H14        -0.5326    1.8155    0.9151 H         1 <0>         0.0959
     42 H15        -0.5499    1.8252   -0.8810 H         1 <0>         0.1108
     43 H16         0.0541   -0.3966    4.9903 H         1 <0>         0.1003
     44 H17         0.9743   -1.9235    5.2106 H         1 <0>         0.0744
     45 H18        -0.8218   -1.9469    5.2268 H         1 <0>         0.0749
     46 H19         0.0897   -5.2648    1.8936 H         1 <0>         0.0963
     47 H20         0.9670   -4.7360    0.4180 H         1 <0>         0.0754
     48 H21        -0.8290   -4.7597    0.4350 H         1 <0>         0.0760
@<TRIPOS>BOND
     1    1    2 1
     2    1   28 1
     3    1   29 1
     4    1   30 1
     5    2    3 1
     6    2   31 1
     7    2   32 1
     8    3    4 1
     9    4    9 ar
    10    4    5 ar
    11    5    6 ar
    12    5   33 1
    13    6    7 ar
    14    6   34 1
    15    7    8 ar
    16    7   13 1
    17    8    9 ar
    18    8   35 1
    19    9   10 1
    20   10   11 1
    21   11   12 1
    22   11   36 1
    23   11   37 1
    24   12   38 1
    25   12   39 1
    26   12   40 1
    27   13   14 1
    28   13   41 1
    29   13   42 1
    30   14   18 1
    31   14   15 1
    32   15   24 2
    33   15   16 1
    34   16   17 2
    35   16   20 1
    36   17   18 1
    37   18   19 2
    38   20   21 am
    39   20   27 1
    40   21   22 2
    41   21   23 am
    42   23   24 1
    43   23   26 1
    44   24   25 1
    45   26   43 1
    46   26   44 1
    47   26   45 1
    48   27   46 1
    49   27   47 1
    50   27   48 1
@<TRIPOS>MOLECULE
ZINC20218894
   57    60     0     0     0
SMALL
USER_CHARGES

@<TRIPOS>ATOM
      1 C1         -0.0173    1.4248    0.0099 C.3       1 <0>         0.0297
      2 O1          0.0021   -0.0041    0.0020 O.3       1 <0>        -0.3213
      3 C2          0.6058   -0.6071   -1.0557 C.ar      1 <0>         0.1158
      4 C3          1.1730    0.1607   -2.0624 C.ar      1 <0>        -0.2019
      5 C4          1.7865   -0.4547   -3.1363 C.ar      1 <0>        -0.0748
      6 C5          1.8352   -1.8346   -3.2086 C.ar      1 <0>        -0.1018
      7 C6          1.2702   -2.6021   -2.2068 C.ar      1 <0>        -0.0583
      8 C7          0.6609   -1.9915   -1.1277 C.ar      1 <0>        -0.1529
      9 C8          2.5046   -2.5033   -4.3815 C.3       1 <0>         0.2533
     10 H1          3.1733   -1.8022   -4.8809 H         1 <0>         0.0731
     11 C9          1.4650   -3.0118   -5.3529 C.2       1 <0>        -0.4771
     12 C10         1.6261   -4.3524   -5.4305 C.2       1 <0>         0.2769
     13 C11         2.7351   -4.7607   -4.5471 C.2       1 <0>         0.5080
     14 O2          3.1237   -5.9025   -4.3984 O.2       1 <0>        -0.5323
     15 N1          3.2543   -3.6818   -3.9304 N.am      1 <0>        -0.6100
     16 C12         4.3684   -3.6832   -2.9791 C.3       1 <0>         0.1427
     17 C13         3.8263   -3.8585   -1.5591 C.3       1 <0>         0.0283
     18 N2          4.9435   -3.8598   -0.6052 N.3       1 <0>        -0.5319
     19 C14         5.7969   -5.0418   -0.7951 C.3       1 <0>         0.0108
     20 C15         6.9783   -4.9728    0.1762 C.3       1 <0>         0.0656
     21 O3          6.4836   -4.8715    1.5143 O.3       1 <0>        -0.3881
     22 C16         5.6491   -3.7312    1.7347 C.3       1 <0>         0.0656
     23 C17         4.4542   -3.7875    0.7792 C.3       1 <0>         0.0187
     24 O4          0.8861   -5.1881   -6.1975 O.3       1 <0>        -0.6075
     25 C18         0.4711   -2.2059   -6.0733 C.2       1 <0>         0.4364
     26 O5         -0.3158   -2.7448   -6.8334 O.2       1 <0>        -0.4947
     27 C19         0.4265   -0.8050   -5.8857 C.2       1 <0>        -0.1623
     28 C20        -0.4938   -0.0588   -6.5528 C.2       1 <0>        -0.0629
     29 C21        -0.5385    1.3413   -6.3654 C.2       1 <0>         0.0273
     30 C22        -1.4200    2.2167   -6.9711 C.2       1 <0>        -0.1947
     31 C23        -1.1018    3.4961   -6.4947 C.2       1 <0>        -0.2126
     32 C24        -0.0643    3.3578   -5.6377 C.2       1 <0>        -0.0451
     33 O6          0.2683    2.0621   -5.5584 O.3       1 <0>        -0.1651
     34 H2          1.0053    1.8021    0.0021 H         1 <0>         0.0527
     35 H3         -0.5445    1.7859   -0.8732 H         1 <0>         0.0534
     36 H4         -0.5275    1.7763    0.9067 H         1 <0>         0.0948
     37 H5          1.1347    1.2385   -2.0068 H         1 <0>         0.1232
     38 H6          2.2283    0.1425   -3.9203 H         1 <0>         0.1253
     39 H7          1.3092   -3.6798   -2.2657 H         1 <0>         0.1226
     40 H8          0.2237   -2.5913   -0.3432 H         1 <0>         0.1243
     41 H9          5.0454   -4.5047   -3.2136 H         1 <0>         0.0766
     42 H10         4.9066   -2.7379   -3.0485 H         1 <0>         0.0836
     43 H11         3.1494   -3.0370   -1.3247 H         1 <0>         0.0937
     44 H12         3.2882   -4.8038   -1.4898 H         1 <0>         0.0393
     45 H13         5.2175   -5.9442   -0.6000 H         1 <0>         0.0448
     46 H14         6.1687   -5.0615   -1.8195 H         1 <0>         0.0897
     47 H15         7.5826   -5.8747    0.0789 H         1 <0>         0.0964
     48 H16         7.5879   -4.0989   -0.0536 H         1 <0>         0.0591
     49 H17         5.2921   -3.7351    2.7646 H         1 <0>         0.0957
     50 H18         6.2200   -2.8212    1.5502 H         1 <0>         0.0588
     51 H19         3.8459   -2.8917    0.9039 H         1 <0>         0.0864
     52 H20         3.8534   -4.6699    0.9995 H         1 <0>         0.0423
     53 H21         1.1233   -0.3278   -5.2126 H         1 <0>         0.1276
     54 H22        -1.1907   -0.5360   -7.2259 H         1 <0>         0.1542
     55 H23        -2.2005    1.9646   -7.6738 H         1 <0>         0.1513
     56 H24        -1.5931    4.4199   -6.7622 H         1 <0>         0.1472
     57 H25         0.4166    4.1622   -5.1009 H         1 <0>         0.2000
@<TRIPOS>BOND
     1    1    2 1
     2    1   34 1
     3    1   35 1
     4    1   36 1
     5    2    3 1
     6    3    8 ar
     7    3    4 ar
     8    4    5 ar
     9    4   37 1
    10    5    6 ar
    11    5   38 1
    12    6    7 ar
    13    6    9 1
    14    7    8 ar
    15    7   39 1
    16    8   40 1
    17    9   10 1
    18    9   15 1
    19    9   11 1
    20   11   12 2
    21   11   25 1
    22   12   13 1
    23   12   24 1
    24   13   14 2
    25   13   15 am
    26   15   16 1
    27   16   17 1
    28   16   41 1
    29   16   42 1
    30   17   18 1
    31   17   43 1
    32   17   44 1
    33   18   23 1
    34   18   19 1
    35   19   20 1
    36   19   45 1
    37   19   46 1
    38   20   21 1
    39   20   47 1
    40   20   48 1
    41   21   22 1
    42   22   23 1
    43   22   49 1
    44   22   50 1
    45   23   51 1
    46   23   52 1
    47   25   26 2
    48   25   27 1
    49   27   28 2
    50   27   53 1
    51   28   29 1
    52   28   54 1
    53   29   33 1
    54   29   30 2
    55   30   31 1
    56   30   55 1
    57   31   32 2
    58   31   56 1
    59   32   33 1
    60   32   57 1
@<TRIPOS>MOLECULE
ZINC45774354
   37    39     0     0     0
SMALL
USER_CHARGES

@<TRIPOS>ATOM
      1 C1         -0.0184    1.5028    0.0103 C.3       1 <0>        -0.0436
      2 C2          0.0021   -0.0041    0.0020 C.2       1 <0>         0.1032
      3 N1          0.0082   -0.7677   -1.0542 N.2       1 <0>        -0.2953
      4 N2          0.0269   -2.0023   -0.6927 N.2       1 <0>        -0.2404
      5 C3          0.0334   -2.0694    0.6187 C.2       1 <0>         0.2549
      6 O1          0.0232   -0.8037    1.0831 O.3       1 <0>        -0.2425
      7 C4          0.0536   -3.3012    1.4329 C.ar      1 <0>        -0.1244
      8 C5          0.0521   -3.2216    2.8261 C.ar      1 <0>        -0.0349
      9 C6          0.0705   -4.3754    3.5812 C.ar      1 <0>        -0.2330
     10 C7          0.0909   -5.6147    2.9636 C.ar      1 <0>        -0.0393
     11 C8          0.0926   -5.7085    1.5857 C.ar      1 <0>        -0.2612
     12 C9          0.0684   -4.5576    0.8104 C.ar      1 <0>         0.3316
     13 N3          0.0647   -4.6500   -0.5795 N.2       1 <0>        -1.0204
     14 S1          0.0822   -6.1358   -1.3106 S.o2      1 <0>         2.6109
     15 O2          1.3368   -6.7264   -1.0001 O.2       1 <0>        -1.0292
     16 O3         -1.1536   -6.7603   -0.9911 O.2       1 <0>        -1.0003
     17 C10         0.0722   -5.8603   -3.0509 C.2       1 <0>        -0.5688
     18 C11         1.1262   -6.2225   -3.8540 C.2       1 <0>        -0.1104
     19 C12         1.0528   -5.9817   -5.1868 C.2       1 <0>        -0.2513
     20 S2         -0.4484   -5.2562   -5.3925 S.3       1 <0>         0.2590
     21 C13        -1.0032   -5.2690   -3.6983 C.2       1 <0>        -0.1246
     22 C14        -2.2637   -4.7808   -3.1364 C.2       1 <0>         0.5248
     23 O4         -2.4723   -4.8712   -1.9415 O.2       1 <0>        -0.4178
     24 O5         -3.1940   -4.2309   -3.9438 O.3       1 <0>        -0.3550
     25 C15        -4.4004   -3.7759   -3.3278 C.3       1 <0>         0.0387
     26 H1          1.0042    1.8801    0.0026 H         1 <0>         0.0859
     27 H2         -0.5455    1.8639   -0.8728 H         1 <0>         0.0955
     28 H3         -0.5286    1.8543    0.9071 H         1 <0>         0.0815
     29 H4          0.0369   -2.2574    3.3125 H         1 <0>         0.1121
     30 H5          0.0693   -4.3122    4.6594 H         1 <0>         0.1106
     31 H6          0.1059   -6.5131    3.5629 H         1 <0>         0.1093
     32 H7          0.1086   -6.6785    1.1110 H         1 <0>         0.1059
     33 H8          2.0013   -6.6923   -3.4300 H         1 <0>         0.1509
     34 H9          1.7910   -6.2050   -5.9430 H         1 <0>         0.1930
     35 H10        -4.8965   -4.6136   -2.8376 H         1 <0>         0.0613
     36 H11        -4.1646   -3.0103   -2.5887 H         1 <0>         0.0630
     37 H12        -5.0605   -3.3567   -4.0872 H         1 <0>         0.1002
@<TRIPOS>BOND
     1    1    2 1
     2    1   26 1
     3    1   27 1
     4    1   28 1
     5    2    6 1
     6    2    3 2
     7    3    4 1
     8    4    5 2
     9    5    6 1
    10    5    7 1
    11    7   12 ar
    12    7    8 ar
    13    8    9 ar
    14    8   29 1
    15    9   10 ar
    16    9   30 1
    17   10   11 ar
    18   10   31 1
    19   11   12 ar
    20   11   32 1
    21   12   13 1
    22   13   14 1
    23   14   15 2
    24   14   16 2
    25   14   17 1
    26   17   21 2
    27   17   18 1
    28   18   19 2
    29   18   33 1
    30   19   20 1
    31   19   34 1
    32   20   21 1
    33   21   22 1
    34   22   23 2
    35   22   24 1
    36   24   25 1
    37   25   35 1
    38   25   36 1
    39   25   37 1
@<TRIPOS>MOLECULE
ZINC01779492
   48    49     0     0     0
SMALL
USER_CHARGES

@<TRIPOS>ATOM
      1 C1          0.6916    1.5506   -0.6180 C.3       1 <0>        -0.1702
      2 C2          0.7677    0.0238   -0.6811 C.3       1 <0>         0.0807
      3 N1          1.2066   -0.3886   -2.0166 N.pl3     1 <0>        -0.5106
      4 C3          2.6346   -0.5503   -2.3009 C.3       1 <0>         0.0946
      5 C4          3.0551   -1.9898   -1.9980 C.3       1 <0>        -0.1664
      6 C5          0.2966   -0.6191   -2.9836 C.2       1 <0>         0.2689
      7 S1          0.8094   -1.1010   -4.5443 S.2       1 <0>        -0.4836
      8 S2         -1.4210   -0.4247   -2.6416 S.3       1 <0>        -0.0077
      9 C6         -2.2305   -0.8361   -4.2120 C.3       1 <0>        -0.1162
     10 H1         -1.8250   -0.2294   -5.0217 H         1 <0>         0.1629
     11 C7         -3.7569   -0.6448   -4.1023 C.3       1 <0>        -0.1284
     12 C8         -4.3074   -2.0306   -4.3589 C.2       1 <0>         0.5288
     13 O1         -5.4823   -2.3294   -4.3656 O.2       1 <0>        -0.4605
     14 N2         -3.2914   -2.8745   -4.5778 N.am      1 <0>        -0.5285
     15 C9         -2.0754   -2.3092   -4.5211 C.2       1 <0>         0.5241
     16 O2         -1.0215   -2.8843   -4.6892 O.2       1 <0>        -0.3967
     17 C10        -3.4816   -4.2373   -4.8465 C.ar      1 <0>         0.1438
     18 C11        -4.0808   -4.6351   -6.0339 C.ar      1 <0>        -0.1222
     19 C12        -4.2669   -5.9785   -6.2958 C.ar      1 <0>        -0.0109
     20 C13        -3.8569   -6.9267   -5.3767 C.ar      1 <0>        -0.6160
     21 C14        -3.2597   -6.5335   -4.1931 C.ar      1 <0>        -0.0113
     22 C15        -3.0658   -5.1919   -3.9282 C.ar      1 <0>        -0.1225
     23 S3         -4.0964   -8.6394   -5.7141 S.o2      1 <0>         2.6426
     24 O3         -4.1222   -9.3013   -4.4569 O.2       1 <0>        -1.0042
     25 O4         -5.1694   -8.7244   -6.6419 O.2       1 <0>        -1.0032
     26 N3         -2.7439   -9.1767   -6.5042 N.2       1 <0>        -1.0591
     27 C16        -2.6584  -10.4109   -6.8710 C.2       1 <0>         0.4794
     28 O5         -3.6711  -11.2637   -6.6108 O.3       1 <0>        -0.7313
     29 C17        -1.4275  -10.8998   -7.5900 C.3       1 <0>        -0.1132
     30 H2          1.6755    1.9722   -0.8235 H         1 <0>         0.0642
     31 H3         -0.0201    1.9099   -1.3614 H         1 <0>         0.0667
     32 H4          0.3650    1.8574    0.3756 H         1 <0>         0.0790
     33 H5          1.4794   -0.3355    0.0623 H         1 <0>         0.0980
     34 H6         -0.2162   -0.3979   -0.4756 H         1 <0>         0.0905
     35 H7          2.8230   -0.3302   -3.3517 H         1 <0>         0.1124
     36 H8          3.2090    0.1349   -1.6775 H         1 <0>         0.0867
     37 H9          2.4806   -2.6750   -2.6214 H         1 <0>         0.0724
     38 H10         4.1176   -2.1101   -2.2096 H         1 <0>         0.0764
     39 H11         2.8667   -2.2099   -0.9472 H         1 <0>         0.0543
     40 H12        -4.0298   -0.3023   -3.1041 H         1 <0>         0.1298
     41 H13        -4.1112    0.0550   -4.8592 H         1 <0>         0.1420
     42 H14        -4.4016   -3.8949   -6.7520 H         1 <0>         0.1315
     43 H15        -4.7333   -6.2885   -7.2192 H         1 <0>         0.1477
     44 H16        -2.9405   -7.2764   -3.4772 H         1 <0>         0.1468
     45 H17        -2.5953   -4.8856   -3.0056 H         1 <0>         0.1293
     46 H18        -0.6987  -11.2557   -6.8618 H         1 <0>         0.0724
     47 H19        -1.6984  -11.7149   -8.2610 H         1 <0>         0.0663
     48 H20        -0.9951  -10.0825   -8.1671 H         1 <0>         0.0704
@<TRIPOS>BOND
     1    1    2 1
     2    1   30 1
     3    1   31 1
     4    1   32 1
     5    2    3 1
     6    2   33 1
     7    2   34 1
     8    3    4 1
     9    3    6 1
    10    4    5 1
    11    4   35 1
    12    4   36 1
    13    5   37 1
    14    5   38 1
    15    5   39 1
    16    6    7 2
    17    6    8 1
    18    8    9 1
    19    9   10 1
    20    9   15 1
    21    9   11 1
    22   11   12 1
    23   11   40 1
    24   11   41 1
    25   12   13 2
    26   12   14 am
    27   14   15 am
    28   14   17 1
    29   15   16 2
    30   17   22 ar
    31   17   18 ar
    32   18   19 ar
    33   18   42 1
    34   19   20 ar
    35   19   43 1
    36   20   21 ar
    37   20   23 1
    38   21   22 ar
    39   21   44 1
    40   22   45 1
    41   23   24 2
    42   23   25 2
    43   23   26 1
    44   26   27 2
    45   27   28 1
    46   27   29 1
    47   29   46 1
    48   29   47 1
    49   29   48 1
@<TRIPOS>MOLECULE
ZINC66736625
   41    42     0     0     0
SMALL
USER_CHARGES

@<TRIPOS>ATOM
      1 C1         -0.0173    1.4248    0.0099 C.3       1 <0>         0.0254
      2 O1          0.0021   -0.0041    0.0020 O.3       1 <0>        -0.3077
      3 C2         -1.2000   -0.6373    0.0101 C.ar      1 <0>         0.1280
      4 C3         -2.3743    0.1059    0.0195 C.ar      1 <0>        -0.2217
      5 C4         -3.5968   -0.5281    0.0273 C.ar      1 <0>        -0.0233
      6 C5         -3.6610   -1.9239    0.0262 C.ar      1 <0>        -0.1070
      7 C6         -2.4787   -2.6747    0.0167 C.ar      1 <0>         0.1738
      8 C7         -1.2513   -2.0264    0.0031 C.ar      1 <0>         0.0179
      9 O2         -0.0989   -2.7504   -0.0117 O.3       1 <0>        -0.3180
     10 C8          0.4625   -3.1023    1.2544 C.3       1 <0>         0.0376
     11 O3         -2.5330   -4.0318    0.0155 O.3       1 <0>        -0.2966
     12 C9         -2.5681   -4.6786   -1.2582 C.3       1 <0>         0.0602
     13 C10        -4.9706   -2.6050    0.0355 C.2       1 <0>         0.5287
     14 O4         -6.1111   -1.8777    0.0451 O.3       1 <0>        -0.7109
     15 N1         -5.0279   -3.9055    0.0345 N.2       1 <0>        -1.0314
     16 S1         -6.4971   -4.6696    0.0449 S.o2      1 <0>         2.6408
     17 O5         -7.1020   -4.3697    1.2953 O.2       1 <0>        -0.9983
     18 O6         -7.1211   -4.3669   -1.1954 O.2       1 <0>        -0.9990
     19 C11        -6.1827   -6.4033    0.0405 C.ar      1 <0>        -0.6405
     20 C12        -6.0632   -7.0798   -1.1615 C.ar      1 <0>         0.0349
     21 C13        -5.8171   -8.4399   -1.1759 C.ar      1 <0>        -0.1751
     22 C14        -5.6884   -9.1346    0.0128 C.ar      1 <0>         0.1825
     23 C15        -5.8077   -8.4563    1.2301 C.ar      1 <0>        -0.0871
     24 C16        -6.0509   -7.0807    1.2341 C.ar      1 <0>         0.0585
     25 C17        -5.6765   -9.1674    2.4661 C.1       1 <0>         0.2594
     26 N2         -5.5723   -9.7316    3.4466 N.1       1 <0>        -0.4069
     27 F1         -5.4487  -10.4641   -0.0016 F         1 <0>        -0.1253
     28 H1          1.0053    1.8021    0.0021 H         1 <0>         0.0968
     29 H2         -0.5445    1.7859   -0.8732 H         1 <0>         0.0562
     30 H3         -0.5275    1.7763    0.9067 H         1 <0>         0.0552
     31 H4         -2.3280    1.1849    0.0211 H         1 <0>         0.1341
     32 H5         -4.5066    0.0539    0.0346 H         1 <0>         0.1448
     33 H6          0.6932   -2.1959    1.8141 H         1 <0>         0.0402
     34 H7         -0.2536   -3.7031    1.8150 H         1 <0>         0.0488
     35 H8          1.3761   -3.6764    1.0998 H         1 <0>         0.0866
     36 H9         -1.6713   -4.4208   -1.8215 H         1 <0>         0.0320
     37 H10        -2.6103   -5.7585   -1.1164 H         1 <0>         0.0836
     38 H11        -3.4497   -4.3497   -1.8085 H         1 <0>         0.0538
     39 H12        -6.1632   -6.5421   -2.0928 H         1 <0>         0.1573
     40 H13        -5.7254   -8.9611   -2.1174 H         1 <0>         0.1533
     41 H14        -6.1399   -6.5496    2.1703 H         1 <0>         0.1582
@<TRIPOS>BOND
     1    1    2 1
     2    1   28 1
     3    1   29 1
     4    1   30 1
     5    2    3 1
     6    3    8 ar
     7    3    4 ar
     8    4    5 ar
     9    4   31 1
    10    5    6 ar
    11    5   32 1
    12    6    7 ar
    13    6   13 1
    14    7    8 ar
    15    7   11 1
    16    8    9 1
    17    9   10 1
    18   10   33 1
    19   10   34 1
    20   10   35 1
    21   11   12 1
    22   12   36 1
    23   12   37 1
    24   12   38 1
    25   13   14 1
    26   13   15 2
    27   15   16 1
    28   16   17 2
    29   16   18 2
    30   16   19 1
    31   19   24 ar
    32   19   20 ar
    33   20   21 ar
    34   20   39 1
    35   21   22 ar
    36   21   40 1
    37   22   23 ar
    38   22   27 1
    39   23   24 ar
    40   23   25 1
    41   24   41 1
    42   25   26 3
@<TRIPOS>MOLECULE
ZINC13301917
   43    44     0     0     0
SMALL
USER_CHARGES
2-[(2,3-dimethyl-5-nitro-phenyl)sulfonyl-[(3S)-1,1-dioxothiolan-3-yl]amino]acetic acid
@<TRIPOS>ATOM
      1 C1          3.5997   -4.3318   -6.3330 C.3       1 <0>        -0.1182
      2 C2          3.6470   -3.8536   -4.9047 C.ar      1 <0>        -0.1009
      3 C3          4.8621   -3.5609   -4.3135 C.ar      1 <0>        -0.0104
      4 C4          4.9055   -3.1227   -3.0034 C.ar      1 <0>        -0.0641
      5 C5          3.7339   -2.9770   -2.2840 C.ar      1 <0>         0.0304
      6 C6          2.5191   -3.2688   -2.8753 C.ar      1 <0>        -0.6748
      7 C7          2.4761   -3.7117   -4.1843 C.ar      1 <0>         0.0652
      8 C8          1.1520   -4.0356   -4.8269 C.3       1 <0>        -0.1581
      9 S1          1.0260   -3.0831   -1.9584 S.o2      1 <0>         2.6919
     10 O1          0.6653   -4.3798   -1.5027 O.2       1 <0>        -0.9263
     11 O2          0.1582   -2.2860   -2.7527 O.2       1 <0>        -0.9454
     12 N1          1.3867   -2.1911   -0.6106 N.pl3     1 <0>        -0.9588
     13 C9          1.7723   -2.8646    0.6319 C.3       1 <0>         0.0608
     14 C10         0.5586   -3.0339    1.5091 C.2       1 <0>         0.4552
     15 O3         -0.5180   -2.6330    1.1348 O.co2     1 <0>        -0.6214
     16 C11         1.3201   -0.7284   -0.6608 C.3       1 <0>         0.1551
     17 H1          0.9246   -0.4173   -1.6277 H         1 <0>         0.1191
     18 C12         0.3940   -0.2209    0.4569 C.3       1 <0>        -0.1281
     19 C13         0.5851    1.3176    0.5829 C.3       1 <0>        -0.5674
     20 S2          2.4127    1.4474    0.3880 S.o2      1 <0>         2.3706
     21 O4          2.7084    2.5219   -0.4936 O.2       1 <0>        -0.9447
     22 O5          3.0184    1.4093    1.6728 O.2       1 <0>        -0.9297
     23 C14         2.7408   -0.1428   -0.4757 C.3       1 <0>        -0.6178
     24 N2          6.2065   -2.8098   -2.3704 N.pl3     1 <0>         0.0296
     25 O6          6.2447   -2.4241   -1.2158 O.2       1 <0>        -0.1492
     26 O7          7.2386   -2.9381   -3.0042 O.3       1 <0>        -0.1588
     27 H2          3.6654   -5.4196   -6.3542 H         1 <0>         0.0834
     28 H3          2.6628   -4.0154   -6.7913 H         1 <0>         0.0823
     29 H4          4.4368   -3.9064   -6.8865 H         1 <0>         0.0782
     30 H5          5.7774   -3.6750   -4.8754 H         1 <0>         0.1609
     31 H6          3.7679   -2.6350   -1.2602 H         1 <0>         0.1666
     32 H7          0.7349   -3.1334   -5.2743 H         1 <0>         0.1125
     33 H8          1.2982   -4.7902   -5.5998 H         1 <0>         0.0984
     34 H9          0.4653   -4.4175   -4.0715 H         1 <0>         0.0773
     35 H10         2.1920   -3.8433    0.3995 H         1 <0>         0.0930
     36 H11         2.5173   -2.2645    1.1543 H         1 <0>         0.0939
     37 H12         0.6557   -0.7027    1.3990 H         1 <0>         0.1074
     38 H13        -0.6429   -0.4437    0.2054 H         1 <0>         0.1215
     39 H14         0.0650    1.8461   -0.2160 H         1 <0>         0.1386
     40 H15         0.2667    1.6755    1.5620 H         1 <0>         0.1442
     41 H16         3.3520   -0.7997    0.1431 H         1 <0>         0.1528
     42 H17         3.2167    0.0294   -1.4411 H         1 <0>         0.1411
     43 O8          0.6737   -3.6299    2.7063 O.co2     1 <0>        -0.7561
@<TRIPOS>BOND
     1    1    2 1
     2    1   27 1
     3    1   28 1
     4    1   29 1
     5    2    7 ar
     6    2    3 ar
     7    3    4 ar
     8    3   30 1
     9    4    5 ar
    10    4   24 1
    11    5    6 ar
    12    5   31 1
    13    6    7 ar
    14    6    9 1
    15    7    8 1
    16    8   32 1
    17    8   33 1
    18    8   34 1
    19    9   10 2
    20    9   11 2
    21    9   12 1
    22   12   13 1
    23   12   16 1
    24   13   14 1
    25   13   35 1
    26   13   36 1
    27   14   15 2
    28   14   43 1
    29   16   17 1
    30   16   23 1
    31   16   18 1
    32   18   19 1
    33   18   37 1
    34   18   38 1
    35   19   20 1
    36   19   39 1
    37   19   40 1
    38   20   21 2
    39   20   22 2
    40   20   23 1
    41   23   41 1
    42   23   42 1
    43   24   25 2
    44   24   26 1
@<TRIPOS>MOLECULE
ZINC27995736
   42    44     0     0     0
SMALL
USER_CHARGES
(6R,7Z)-5,5,8-trioxo-3-(propanoyloxymethyl)-7-(2-pyridylmethylene)-5$l^{6}-thia-1-azabicyclo[4.2.0]oct-2-ene-2-carboxylic acid
@<TRIPOS>ATOM
      1 C1         -8.9003    6.8306   -3.6690 C.3       1 <0>        -0.1437
      2 C2         -7.5049    6.3780   -3.2344 C.3       1 <0>        -0.1192
      3 C3         -7.6040    5.0482   -2.5325 C.2       1 <0>         0.4517
      4 O1         -8.6803    4.5169   -2.3940 O.2       1 <0>        -0.4985
      5 O2         -6.4966    4.4539   -2.0611 O.3       1 <0>        -0.3817
      6 C4         -6.6508    3.1247   -1.4974 C.3       1 <0>         0.1325
      7 C5         -5.2962    2.5722   -1.1355 C.2       1 <0>        -0.1417
      8 C6         -5.2955    1.3903   -0.5337 C.2       1 <0>         0.1059
      9 N1         -4.0782    0.7766   -0.2079 N.am      1 <0>        -0.5438
     10 C7         -2.7455    1.4437   -0.0838 C.3       1 <0>        -0.3137
     11 H1         -2.4364    1.9806    0.8252 H         1 <0>         0.1762
     12 C8         -2.1658    0.0630   -0.1835 C.2       1 <0>        -0.1328
     13 C9         -0.9362   -0.4715   -0.3108 C.2       1 <0>        -0.0140
     14 C10         0.2450    0.4067   -0.3841 C.ar      1 <0>         0.1327
     15 C11         1.5179   -0.1531   -0.5157 C.ar      1 <0>        -0.1476
     16 C12         2.6171    0.6857   -0.5832 C.ar      1 <0>        -0.0757
     17 C13         2.4099    2.0560   -0.5172 C.ar      1 <0>        -0.1728
     18 C14         1.1201    2.5434   -0.3862 C.ar      1 <0>         0.1326
     19 N2          0.0912    1.7258   -0.3242 N.ar      1 <0>        -0.4797
     20 C15        -3.5498   -0.4472   -0.0859 C.2       1 <0>         0.5847
     21 O3         -4.0278   -1.5576    0.0529 O.2       1 <0>        -0.4483
     22 S1         -2.5761    2.4779   -1.5762 S.o2      1 <0>         2.4142
     23 O4         -1.4847    3.3696   -1.3941 O.2       1 <0>        -0.9090
     24 O5         -2.6071    1.6377   -2.7217 O.2       1 <0>        -0.9209
     25 C16        -4.1263    3.4256   -1.4999 C.3       1 <0>        -0.5386
     26 C17        -6.5701    0.7249   -0.2084 C.2       1 <0>         0.4907
     27 O6         -6.5709   -0.3014    0.4422 O.co2     1 <0>        -0.5903
     28 O7         -7.7344    1.2548   -0.6325 O.co2     1 <0>        -0.7136
     29 H2         -8.8279    7.8013   -4.1813 H         1 <0>         0.0650
     30 H3         -9.5456    6.9304   -2.7838 H         1 <0>         0.0640
     31 H4         -9.3306    6.0855   -4.3543 H         1 <0>         0.0641
     32 H5         -6.8596    6.2782   -4.1196 H         1 <0>         0.1013
     33 H6         -7.0746    7.1231   -2.5491 H         1 <0>         0.1010
     34 H7         -7.2774    3.1796   -0.5950 H         1 <0>         0.1147
     35 H8         -7.1298    2.4661   -2.2369 H         1 <0>         0.1048
     36 H9         -0.8136   -1.5635   -0.3601 H         1 <0>         0.1692
     37 H10         1.6428   -1.2247   -0.5637 H         1 <0>         0.1413
     38 H11         3.6137    0.2824   -0.6853 H         1 <0>         0.1371
     39 H12         3.2469    2.7365   -0.5671 H         1 <0>         0.1372
     40 H13         0.9567    3.6097   -0.3343 H         1 <0>         0.1664
     41 H14        -4.2967    3.8791   -2.4875 H         1 <0>         0.1532
     42 H15        -4.0031    4.2193   -0.7483 H         1 <0>         0.1455
@<TRIPOS>BOND
     1    1    2 1
     2    1   29 1
     3    1   30 1
     4    1   31 1
     5    2    3 1
     6    2   32 1
     7    2   33 1
     8    3    4 2
     9    3    5 1
    10    5    6 1
    11    6    7 1
    12    6   34 1
    13    6   35 1
    14    7   25 1
    15    7    8 2
    16    8    9 1
    17    8   26 1
    18    9   20 am
    19    9   10 1
    20   10   11 1
    21   10   12 1
    22   10   22 1
    23   12   13 2
    24   12   20 1
    25   13   14 1
    26   13   36 1
    27   14   19 ar
    28   14   15 ar
    29   15   16 ar
    30   15   37 1
    31   16   17 ar
    32   16   38 1
    33   17   18 ar
    34   17   39 1
    35   18   19 ar
    36   18   40 1
    37   20   21 2
    38   22   23 2
    39   22   24 2
    40   22   25 1
    41   25   41 1
    42   25   42 1
    43   26   27 2
    44   26   28 1
@<TRIPOS>MOLECULE
ZINC40110424
   60    62     0     0     0
SMALL
USER_CHARGES

@<TRIPOS>ATOM
      1 C1         -5.2757   -5.4615    1.3258 C.3       1 <0>         0.0903
      2 N1         -5.4657   -6.4254    0.2390 N.pl3     1 <0>        -1.0073
      3 C2         -4.6081   -7.6100    0.1524 C.3       1 <0>         0.0920
      4 S1         -6.6497   -6.1759   -0.8915 S.o2      1 <0>         2.6935
      5 O1         -7.0583   -7.4602   -1.3420 O.2       1 <0>        -0.9542
      6 O2         -7.5596   -5.2415   -0.3272 O.2       1 <0>        -0.9550
      7 C3         -5.8953   -5.3758   -2.2682 C.ar      1 <0>        -0.6674
      8 C4         -5.7421   -4.0004   -2.2665 C.ar      1 <0>        -0.0346
      9 C5         -5.1524   -3.3676   -3.3408 C.ar      1 <0>        -0.0973
     10 C6         -4.7095   -4.1182   -4.4320 C.ar      1 <0>        -0.0786
     11 C7         -4.8672   -5.5058   -4.4272 C.ar      1 <0>        -0.0852
     12 C8         -5.4535   -6.1262   -3.3438 C.ar      1 <0>        -0.0382
     13 C9         -4.0768   -3.4467   -5.5875 C.2       1 <0>         0.4987
     14 O3         -4.0450   -2.2318   -5.6424 O.2       1 <0>        -0.4592
     15 C10        -3.4881   -4.2449   -6.6668 C.2       1 <0>        -0.5197
     16 C11        -3.9305   -4.3277   -7.9435 C.2       1 <0>         0.2732
     17 C12        -3.0513   -5.2412   -8.7037 C.2       1 <0>         0.5111
     18 O4         -3.1862   -5.5222   -9.8779 O.2       1 <0>        -0.5248
     19 N2         -2.0792   -5.7147   -7.9031 N.am      1 <0>        -0.6137
     20 C13        -2.2665   -5.1288   -6.5706 C.3       1 <0>         0.2671
     21 H1         -2.4316   -5.9177   -5.8368 H         1 <0>         0.0788
     22 C14        -1.0619   -4.3081   -6.1880 C.ar      1 <0>        -0.0594
     23 C15        -0.4272   -4.5333   -4.9806 C.ar      1 <0>        -0.0570
     24 C16         0.6776   -3.7806   -4.6296 C.ar      1 <0>        -0.1182
     25 C17         1.1482   -2.8026   -5.4862 C.ar      1 <0>        -0.0689
     26 C18         0.5142   -2.5781   -6.6936 C.ar      1 <0>        -0.0474
     27 C19        -0.5883   -3.3340   -7.0465 C.ar      1 <0>        -0.0058
     28 N3          1.0177   -1.5307   -7.6104 N.pl3     1 <0>         0.0376
     29 O5          2.0392   -0.9390   -7.3494 O.2       1 <0>        -0.1738
     30 O6          0.4075   -1.2670   -8.6202 O.3       1 <0>        -0.1610
     31 C20        -1.0176   -6.6455   -8.2941 C.3       1 <0>         0.1396
     32 C21         0.1668   -5.8596   -8.8602 C.3       1 <0>         0.0391
     33 O7          1.1229   -5.6267   -7.8240 O.3       1 <0>        -0.3686
     34 C22         2.3533   -5.0642   -8.2842 C.3       1 <0>         0.0644
     35 C23         3.3436   -4.9831   -7.1207 C.3       1 <0>         0.0787
     36 O8          3.6392   -6.3010   -6.6540 O.3       1 <0>        -0.5623
     37 O9         -5.0064   -3.6781   -8.4439 O.3       1 <0>        -0.6404
     38 H2         -4.4571   -5.7916    1.9653 H         1 <0>         0.0812
     39 H3         -5.0379   -4.4838    0.9068 H         1 <0>         0.0612
     40 H4         -6.1908   -5.3920    1.9139 H         1 <0>         0.0672
     41 H5         -5.0171   -8.4014    0.7806 H         1 <0>         0.0607
     42 H6         -4.5651   -7.9526   -0.8815 H         1 <0>         0.0741
     43 H7         -3.6042   -7.3576    0.4936 H         1 <0>         0.0723
     44 H8         -6.0855   -3.4211   -1.4221 H         1 <0>         0.1377
     45 H9         -5.0338   -2.2942   -3.3384 H         1 <0>         0.1395
     46 H10        -4.5272   -6.0921   -5.2680 H         1 <0>         0.1459
     47 H11        -5.5721   -7.1997   -3.3368 H         1 <0>         0.1420
     48 H12        -0.7948   -5.2972   -4.3115 H         1 <0>         0.1357
     49 H13         1.1730   -3.9560   -3.6861 H         1 <0>         0.1392
     50 H14         2.0110   -2.2139   -5.2116 H         1 <0>         0.1428
     51 H15        -1.0815   -3.1610   -7.9917 H         1 <0>         0.1411
     52 H16        -0.6932   -7.2136   -7.4222 H         1 <0>         0.0925
     53 H17        -1.3958   -7.3298   -9.0535 H         1 <0>         0.0958
     54 H18         0.6326   -6.4320   -9.6624 H         1 <0>         0.0574
     55 H19        -0.1845   -4.9049   -9.2517 H         1 <0>         0.0548
     56 H20         2.7685   -5.6934   -9.0715 H         1 <0>         0.0557
     57 H21         2.1712   -4.0638   -8.6767 H         1 <0>         0.0489
     58 H22         4.2620   -4.5027   -7.4581 H         1 <0>         0.0574
     59 H23         2.9053   -4.4005   -6.3104 H         1 <0>         0.0548
     60 H24         4.2020   -6.3229   -5.8679 H         1 <0>         0.3761
@<TRIPOS>BOND
     1    1    2 1
     2    1   38 1
     3    1   39 1
     4    1   40 1
     5    2    3 1
     6    2    4 1
     7    3   41 1
     8    3   42 1
     9    3   43 1
    10    4    5 2
    11    4    6 2
    12    4    7 1
    13    7   12 ar
    14    7    8 ar
    15    8    9 ar
    16    8   44 1
    17    9   10 ar
    18    9   45 1
    19   10   11 ar
    20   10   13 1
    21   11   12 ar
    22   11   46 1
    23   12   47 1
    24   13   14 2
    25   13   15 1
    26   15   20 1
    27   15   16 2
    28   16   17 1
    29   16   37 1
    30   17   18 2
    31   17   19 am
    32   19   20 1
    33   19   31 1
    34   20   21 1
    35   20   22 1
    36   22   27 ar
    37   22   23 ar
    38   23   24 ar
    39   23   48 1
    40   24   25 ar
    41   24   49 1
    42   25   26 ar
    43   25   50 1
    44   26   27 ar
    45   26   28 1
    46   27   51 1
    47   28   29 2
    48   28   30 1
    49   31   32 1
    50   31   52 1
    51   31   53 1
    52   32   33 1
    53   32   54 1
    54   32   55 1
    55   33   34 1
    56   34   35 1
    57   34   56 1
    58   34   57 1
    59   35   36 1
    60   35   58 1
    61   35   59 1
    62   36   60 1
@<TRIPOS>MOLECULE
ZINC59368850
   47    50     0     0     0
SMALL
USER_CHARGES

@<TRIPOS>ATOM
      1 C1         -0.0184    1.5028    0.0103 C.3       1 <0>        -0.0762
      2 C2          0.0021   -0.0041    0.0020 C.2       1 <0>         0.2624
      3 N1          0.0080   -0.7630   -1.0603 N.2       1 <0>        -0.4798
      4 C3          0.0270   -2.0538   -0.6968 C.2       1 <0>         0.2793
      5 N2          0.0334   -2.1227    0.6182 N.2       1 <0>        -0.2634
      6 N3          0.0232   -0.8004    1.0914 N.pl3     1 <0>        -0.3506
      7 C4          0.0303   -0.3888    2.4315 C.ar      1 <0>         0.1517
      8 C5          0.7028    0.7688    2.7996 C.ar      1 <0>        -0.1032
      9 C6          0.7082    1.1729    4.1201 C.ar      1 <0>        -0.1319
     10 C7          0.0435    0.4242    5.0770 C.ar      1 <0>         0.0923
     11 C8         -0.6278   -0.7308    4.7118 C.ar      1 <0>        -0.1320
     12 C9         -0.6399   -1.1352    3.3915 C.ar      1 <0>        -0.0784
     13 F1          0.0504    0.8209    6.3684 F         1 <0>        -0.1375
     14 C10         0.0385   -3.2096   -1.6208 C.2       1 <0>         0.5712
     15 O1          0.0572   -4.4691   -1.1282 O.3       1 <0>        -0.6821
     16 N4          0.0306   -3.0144   -2.9062 N.2       1 <0>        -1.0364
     17 S1          0.0434   -4.3079   -3.9402 S.o2      1 <0>         2.5843
     18 O2          1.2877   -4.9511   -3.7008 O.2       1 <0>        -0.9885
     19 O3         -1.1813   -4.9838   -3.6906 O.2       1 <0>        -0.9885
     20 C11         0.0270   -3.5775   -5.6006 C.3       1 <0>        -0.6366
     21 C12         0.0374   -4.6924   -6.6483 C.3       1 <0>         0.1252
     22 N5          0.0241   -4.1026   -7.9893 N.am      1 <0>        -0.5679
     23 C13        -1.0920   -3.8054   -8.6791 C.2       1 <0>         0.5703
     24 O4         -2.2306   -3.9815   -8.2951 O.2       1 <0>        -0.4539
     25 C14        -0.7005   -3.2288   -9.9826 C.ar      1 <0>        -0.1356
     26 C15        -1.4005   -2.7502  -11.0785 C.ar      1 <0>        -0.0458
     27 C16        -0.7088   -2.2624  -12.1761 C.ar      1 <0>        -0.0978
     28 C17         0.6734   -2.2504  -12.1846 C.ar      1 <0>        -0.0978
     29 C18         1.3870   -2.7259  -11.0955 C.ar      1 <0>        -0.0458
     30 C19         0.7089   -3.2165   -9.9912 C.ar      1 <0>        -0.1356
     31 C20         1.1262   -3.7815   -8.6906 C.2       1 <0>         0.5703
     32 O5          2.2723   -3.9323   -8.3182 O.2       1 <0>        -0.4540
     33 H1          1.0042    1.8801    0.0026 H         1 <0>         0.0913
     34 H2         -0.5455    1.8639   -0.8728 H         1 <0>         0.1000
     35 H3         -0.5286    1.8543    0.9071 H         1 <0>         0.0822
     36 H4          1.2215    1.3527    2.0537 H         1 <0>         0.1447
     37 H5          1.2315    2.0731    4.4068 H         1 <0>         0.1457
     38 H6         -1.1453   -1.3135    5.4595 H         1 <0>         0.1451
     39 H7         -1.1672   -2.0336    3.1063 H         1 <0>         0.1475
     40 H8         -0.8716   -2.9727   -5.7226 H         1 <0>         0.1331
     41 H9          0.9082   -2.9492   -5.7299 H         1 <0>         0.1330
     42 H10         0.9359   -5.2973   -6.5263 H         1 <0>         0.1108
     43 H11        -0.8439   -5.3208   -6.5190 H         1 <0>         0.1107
     44 H12        -2.4805   -2.7576  -11.0775 H         1 <0>         0.1428
     45 H13        -1.2536   -1.8896  -13.0309 H         1 <0>         0.1414
     46 H14         1.2011   -1.8681  -13.0459 H         1 <0>         0.1414
     47 H15         2.4668   -2.7143  -11.1078 H         1 <0>         0.1428
@<TRIPOS>BOND
     1    1    2 1
     2    1   33 1
     3    1   34 1
     4    1   35 1
     5    2    6 1
     6    2    3 2
     7    3    4 1
     8    4    5 2
     9    4   14 1
    10    5    6 1
    11    6    7 1
    12    7   12 ar
    13    7    8 ar
    14    8    9 ar
    15    8   36 1
    16    9   10 ar
    17    9   37 1
    18   10   11 ar
    19   10   13 1
    20   11   12 ar
    21   11   38 1
    22   12   39 1
    23   14   15 1
    24   14   16 2
    25   16   17 1
    26   17   18 2
    27   17   19 2
    28   17   20 1
    29   20   21 1
    30   20   40 1
    31   20   41 1
    32   21   22 1
    33   21   42 1
    34   21   43 1
    35   22   31 am
    36   22   23 am
    37   23   24 2
    38   23   25 1
    39   25   30 ar
    40   25   26 ar
    41   26   27 ar
    42   26   44 1
    43   27   28 ar
    44   27   45 1
    45   28   29 ar
    46   28   46 1
    47   29   30 ar
    48   29   47 1
    49   30   31 1
    50   31   32 2
@<TRIPOS>MOLECULE
ZINC66833246
   51    54     0     0     0
SMALL
USER_CHARGES

@<TRIPOS>ATOM
      1 C1          1.6782   -0.3275   -0.0950 C.3       1 <0>        -0.1010
      2 C2          0.2876   -0.9078   -0.1153 C.2       1 <0>         0.1037
      3 C3         -0.5582   -0.9592   -1.1873 C.2       1 <0>        -0.1061
      4 N1         -1.7007   -1.5518   -0.8000 N.2       1 <0>        -0.1675
      5 N2         -1.6200   -1.8725    0.4443 N.2       1 <0>        -0.0326
      6 N3         -0.3604   -1.4825    0.9209 N.pl3     1 <0>        -0.2861
      7 C4          0.1313   -1.6543    2.2237 C.ar      1 <0>         0.1091
      8 C5          1.4795   -1.9151    2.4282 C.ar      1 <0>        -0.0459
      9 C6          1.9630   -2.0841    3.7103 C.ar      1 <0>        -0.1973
     10 C7          1.1016   -1.9935    4.7943 C.ar      1 <0>         0.1331
     11 C8         -0.2459   -1.7330    4.5904 C.ar      1 <0>        -0.1448
     12 C9         -0.7291   -1.5581    3.3090 C.ar      1 <0>        -0.0635
     13 O1          1.5779   -2.1605    6.0564 O.3       1 <0>        -0.3098
     14 C10         2.9931   -2.2934    6.2035 C.3       1 <0>         0.0756
     15 C11         3.4029   -1.8560    7.6112 C.3       1 <0>        -0.1474
     16 C12         3.3935   -3.7540    5.9864 C.3       1 <0>        -0.1835
     17 C13        -0.2669   -0.4496   -2.5405 C.2       1 <0>         0.6235
     18 O2         -0.3885    0.7358   -2.7830 O.2       1 <0>        -0.5287
     19 N4          0.1339   -1.2977   -3.5082 N.am      1 <0>        -0.5485
     20 C14         0.4209   -2.6971   -3.1830 C.3       1 <0>         0.0501
     21 H1          0.6041   -3.2729   -4.0902 H         1 <0>         0.1074
     22 C15         1.6225   -2.7988   -2.2190 C.3       1 <0>        -0.2000
     23 C16         1.0237   -3.4488   -0.9901 C.2       1 <0>         0.4660
     24 O3          1.6954   -3.7443    0.1330 O.3       1 <0>        -0.6457
     25 N5         -0.2406   -3.6761   -1.1884 N.2       1 <0>        -0.6898
     26 C17        -0.7117   -3.3047   -2.3815 C.2       1 <0>         0.5102
     27 O4         -1.8576   -3.4309   -2.7625 O.2       1 <0>        -0.5066
     28 C18         0.2825   -0.8204   -4.8853 C.3       1 <0>         0.0718
     29 C19         0.3683    0.6915   -5.1035 C.3       1 <0>        -0.1988
     30 C20        -0.8978   -0.0685   -5.5036 C.3       1 <0>        -0.1872
     31 H2          2.3991   -1.1023   -0.3562 H         1 <0>         0.0969
     32 H3          1.7427    0.4869   -0.8165 H         1 <0>         0.0869
     33 H4          1.8988    0.0525    0.9025 H         1 <0>         0.0796
     34 H5          2.1500   -1.9860    1.5845 H         1 <0>         0.1499
     35 H6          3.0117   -2.2873    3.8695 H         1 <0>         0.1363
     36 H7         -0.9159   -1.6625    5.4344 H         1 <0>         0.1375
     37 H8         -1.7771   -1.3509    3.1506 H         1 <0>         0.1395
     38 H9          3.4954   -1.6657    5.4673 H         1 <0>         0.0746
     39 H10         2.9006   -2.4837    8.3473 H         1 <0>         0.0660
     40 H11         4.4824   -1.9574    7.7233 H         1 <0>         0.0754
     41 H12         3.1177   -0.8154    7.7658 H         1 <0>         0.0639
     42 H13         4.4730   -3.8554    6.0986 H         1 <0>         0.0706
     43 H14         2.8912   -4.3817    6.7225 H         1 <0>         0.0666
     44 H15         3.1016   -4.0656    4.9835 H         1 <0>         0.0683
     45 H16         2.4050   -3.4273   -2.6442 H         1 <0>         0.0888
     46 H17         2.0098   -1.8083   -1.9806 H         1 <0>         0.0875
     47 H18         0.8729   -1.4585   -5.5429 H         1 <0>         0.1280
     48 H19         0.3142    1.3310   -4.2225 H         1 <0>         0.1474
     49 H20         1.0154    1.0485   -5.9047 H         1 <0>         0.0857
     50 H21        -1.0838   -0.2116   -6.5680 H         1 <0>         0.0952
     51 H22        -1.7850    0.0710   -4.8858 H         1 <0>         0.0959
@<TRIPOS>BOND
     1    1    2 1
     2    1   31 1
     3    1   32 1
     4    1   33 1
     5    2    6 1
     6    2    3 2
     7    3    4 1
     8    3   17 1
     9    4    5 2
    10    5    6 1
    11    6    7 1
    12    7   12 ar
    13    7    8 ar
    14    8    9 ar
    15    8   34 1
    16    9   10 ar
    17    9   35 1
    18   10   11 ar
    19   10   13 1
    20   11   12 ar
    21   11   36 1
    22   12   37 1
    23   13   14 1
    24   14   15 1
    25   14   16 1
    26   14   38 1
    27   15   39 1
    28   15   40 1
    29   15   41 1
    30   16   42 1
    31   16   43 1
    32   16   44 1
    33   17   18 2
    34   17   19 am
    35   19   20 1
    36   19   28 1
    37   20   21 1
    38   20   26 1
    39   20   22 1
    40   22   23 1
    41   22   45 1
    42   22   46 1
    43   23   24 1
    44   23   25 2
    45   25   26 1
    46   26   27 2
    47   28   30 1
    48   28   29 1
    49   28   47 1
    50   29   30 1
    51   29   48 1
    52   29   49 1
    53   30   50 1
    54   30   51 1
@<TRIPOS>MOLECULE
ZINC20618276
   47    50     0     0     0
SMALL
USER_CHARGES
3-[2-[4-(4-nitrophenyl)piperazin-1-yl]-2-oxo-ethyl]-2-thioxo-1H-pyrido[3,2-e]pyrimidin-4-one
@<TRIPOS>ATOM
      1 C1          1.1911   -0.7126   -0.0127 C.ar      1 <0>        -0.2473
      2 C2          2.3939   -0.0247   -0.0205 C.ar      1 <0>         0.0174
      3 C3          2.3482    1.3681   -0.0130 C.ar      1 <0>        -0.2854
      4 C4          1.1018    2.0213    0.0024 C.ar      1 <0>         0.3858
      5 N1          1.0818    3.4047    0.0086 N.2       1 <0>        -0.5513
      6 C5          2.2257    4.1092    0.0010 C.2       1 <0>         0.5251
      7 S1          2.1332    5.8186    0.0105 S.3       1 <0>        -0.7095
      8 N2          3.4379    3.5330   -0.0132 N.am      1 <0>        -0.5168
      9 C6          3.5714    2.1882   -0.0208 C.2       1 <0>         0.5645
     10 O1          4.6711    1.6696   -0.0333 O.2       1 <0>        -0.5383
     11 C7          4.6361    4.3758   -0.0211 C.3       1 <0>         0.0759
     12 C8          5.0329    4.6715   -1.4446 C.2       1 <0>         0.5269
     13 O2          4.3792    4.2223   -2.3621 O.2       1 <0>        -0.5203
     14 N3          6.1142    5.4350   -1.6980 N.am      1 <0>        -0.6199
     15 C9          6.9173    5.9946   -0.6002 C.3       1 <0>         0.1089
     16 C10         8.3918    5.6429   -0.8538 C.3       1 <0>         0.0397
     17 N4          8.7744    6.0981   -2.1971 N.pl3     1 <0>        -0.4827
     18 C11         8.0058    5.3990   -3.2356 C.3       1 <0>         0.0309
     19 C12         6.5190    5.7357   -3.0797 C.3       1 <0>         0.1164
     20 C13        10.1475    5.9480   -2.4043 C.ar      1 <0>         0.1740
     21 C14        10.6117    5.2062   -3.4831 C.ar      1 <0>        -0.1756
     22 C15        11.9701    5.0646   -3.6883 C.ar      1 <0>        -0.0216
     23 C16        12.8677    5.6508   -2.8148 C.ar      1 <0>        -0.0801
     24 C17        12.4089    6.3852   -1.7366 C.ar      1 <0>        -0.0258
     25 C18        11.0519    6.5355   -1.5288 C.ar      1 <0>        -0.1439
     26 N5         14.3227    5.4922   -3.0347 N.pl3     1 <0>         0.0352
     27 O3         15.1145    6.0082   -2.2664 O.2       1 <0>        -0.1684
     28 O4         14.7283    4.8456   -3.9839 O.3       1 <0>        -0.1700
     29 N6         -0.0158    1.3151    0.0093 N.ar      1 <0>        -0.4989
     30 C19         0.0021   -0.0041    0.0020 C.ar      1 <0>         0.1648
     31 H1          1.1813   -1.7925   -0.0177 H         1 <0>         0.1333
     32 H2          3.3368   -0.5512   -0.0323 H         1 <0>         0.1352
     33 H3          4.4245    5.3189    0.5040 H         1 <0>         0.1497
     34 H4          5.4578    3.8497    0.4869 H         1 <0>         0.1113
     35 H5          6.7893    7.0868   -0.5720 H         1 <0>         0.0874
     36 H6          6.5849    5.5617    0.3549 H         1 <0>         0.0994
     37 H7          9.0220    6.1411   -0.1024 H         1 <0>         0.1019
     38 H8          8.5266    4.5536   -0.7814 H         1 <0>         0.0609
     39 H9          8.3537    5.7207   -4.2283 H         1 <0>         0.1002
     40 H10         8.1502    4.3136   -3.1305 H         1 <0>         0.0608
     41 H11         5.9219    5.1295   -3.7769 H         1 <0>         0.1039
     42 H12         6.3523    6.8031   -3.2866 H         1 <0>         0.0794
     43 H13         9.9112    4.7444   -4.1631 H         1 <0>         0.1515
     44 H14        12.3317    4.4920   -4.5296 H         1 <0>         0.1530
     45 H15        13.1126    6.8414   -1.0561 H         1 <0>         0.1547
     46 H16        10.6943    7.1095   -0.6867 H         1 <0>         0.1513
     47 H17        -0.9333   -0.5440    0.0080 H         1 <0>         0.1564
@<TRIPOS>BOND
     1    1   30 ar
     2    1    2 ar
     3    1   31 1
     4    2    3 ar
     5    2   32 1
     6    3    9 1
     7    3    4 ar
     8    4    5 1
     9    4   29 ar
    10    5    6 2
    11    6    7 1
    12    6    8 1
    13    8    9 am
    14    8   11 1
    15    9   10 2
    16   11   12 1
    17   11   33 1
    18   11   34 1
    19   12   13 2
    20   12   14 am
    21   14   19 1
    22   14   15 1
    23   15   16 1
    24   15   35 1
    25   15   36 1
    26   16   17 1
    27   16   37 1
    28   16   38 1
    29   17   18 1
    30   17   20 1
    31   18   19 1
    32   18   39 1
    33   18   40 1
    34   19   41 1
    35   19   42 1
    36   20   25 ar
    37   20   21 ar
    38   21   22 ar
    39   21   43 1
    40   22   23 ar
    41   22   44 1
    42   23   24 ar
    43   23   26 1
    44   24   25 ar
    45   24   45 1
    46   25   46 1
    47   26   27 2
    48   26   28 1
    49   29   30 ar
    50   30   47 1
@<TRIPOS>MOLECULE
ZINC09466301
   45    48     0     0     0
SMALL
USER_CHARGES

@<TRIPOS>ATOM
      1 C1          1.3123    1.9470    2.5191 C.ar      1 <0>        -0.1169
      2 C2          2.6042    2.4362    2.5741 C.ar      1 <0>        -0.1152
      3 C3          3.6688    1.6219    2.2375 C.ar      1 <0>        -0.1115
      4 C4          3.4438    0.3111    1.8437 C.ar      1 <0>         0.0529
      5 C5          2.1453   -0.1814    1.7908 C.ar      1 <0>         0.0465
      6 C6          1.0812    0.6417    2.1286 C.ar      1 <0>        -0.1112
      7 O1          1.9027   -1.4668    1.4146 O.3       1 <0>        -0.2969
      8 C7          2.9588   -2.1465    0.7274 C.3       1 <0>         0.0322
      9 C8          4.2686   -1.8900    1.4850 C.3       1 <0>         0.0353
     10 H1          4.1837   -2.2675    2.5041 H         1 <0>         0.1102
     11 O2          4.5020   -0.4777    1.5112 O.3       1 <0>        -0.2807
     12 C9          5.4072   -2.5813    0.7803 C.2       1 <0>         0.5278
     13 O3          6.1424   -1.9493    0.0516 O.2       1 <0>        -0.5148
     14 N1          5.6084   -3.9018    0.9597 N.am      1 <0>        -0.6035
     15 C10         4.6416   -4.7098    1.7161 C.3       1 <0>         0.0819
     16 C11         4.1871   -5.8809    0.8363 C.3       1 <0>         0.0633
     17 N2          5.3771   -6.5388    0.2785 N.am      1 <0>        -0.6102
     18 C12         6.3439   -5.7308   -0.4779 C.3       1 <0>         0.0983
     19 C13         6.7956   -4.5607    0.3972 C.3       1 <0>         0.1019
     20 C14         5.5783   -7.8593    0.4579 C.2       1 <0>         0.6130
     21 O4          6.6198   -8.3713    0.0918 O.2       1 <0>        -0.5601
     22 C15         4.5420   -8.6793    1.0944 C.2       1 <0>        -0.0975
     23 C16         4.6666   -9.9982    1.4761 C.2       1 <0>        -0.1172
     24 C17         3.4447  -10.3804    2.0385 C.2       1 <0>        -0.1867
     25 C18         2.6135   -9.3119    1.9917 C.2       1 <0>         0.0378
     26 N3          3.2699   -8.2703    1.4250 N.2       1 <0>        -0.5002
     27 N4          3.1175  -11.7157    2.5870 N.pl3     1 <0>         0.0866
     28 O5          3.9471  -12.5950    2.5725 O.2       1 <0>        -0.2268
     29 O6          2.0206  -11.9270    3.0494 O.3       1 <0>        -0.2257
     30 H2          0.4826    2.5847    2.7862 H         1 <0>         0.1326
     31 H3          2.7818    3.4565    2.8804 H         1 <0>         0.1326
     32 H4          4.6771    2.0066    2.2807 H         1 <0>         0.1356
     33 H5          0.0710    0.2620    2.0864 H         1 <0>         0.1364
     34 H6          2.7522   -3.2165    0.7023 H         1 <0>         0.1330
     35 H7          3.0416   -1.7637   -0.2898 H         1 <0>         0.0869
     36 H8          5.1137   -5.0934    2.6205 H         1 <0>         0.0812
     37 H9          3.7807   -4.0963    1.9818 H         1 <0>         0.0896
     38 H10         3.6235   -6.5936    1.4384 H         1 <0>         0.1740
     39 H11         3.5614   -5.5080    0.0254 H         1 <0>         0.0591
     40 H12         7.2048   -6.3443   -0.7436 H         1 <0>         0.1045
     41 H13         5.8718   -5.3471   -1.3823 H         1 <0>         0.0666
     42 H14         7.3569   -3.8487   -0.2079 H         1 <0>         0.1029
     43 H15         7.4246   -4.9334    1.2056 H         1 <0>         0.0770
     44 H16         5.5427  -10.6194    1.3618 H         1 <0>         0.1243
     45 H17         1.5952   -9.2921    2.3511 H         1 <0>         0.1511
@<TRIPOS>BOND
     1    1    6 ar
     2    1    2 ar
     3    1   30 1
     4    2    3 ar
     5    2   31 1
     6    3    4 ar
     7    3   32 1
     8    4   11 1
     9    4    5 ar
    10    5    6 ar
    11    5    7 1
    12    6   33 1
    13    7    8 1
    14    8    9 1
    15    8   34 1
    16    8   35 1
    17    9   10 1
    18    9   11 1
    19    9   12 1
    20   12   13 2
    21   12   14 am
    22   14   19 1
    23   14   15 1
    24   15   16 1
    25   15   36 1
    26   15   37 1
    27   16   17 1
    28   16   38 1
    29   16   39 1
    30   17   18 1
    31   17   20 am
    32   18   19 1
    33   18   40 1
    34   18   41 1
    35   19   42 1
    36   19   43 1
    37   20   21 2
    38   20   22 1
    39   22   26 1
    40   22   23 2
    41   23   24 1
    42   23   44 1
    43   24   25 2
    44   24   27 1
    45   25   26 1
    46   25   45 1
    47   27   28 2
    48   27   29 1
@<TRIPOS>MOLECULE
ZINC48676731
   46    48     0     0     0
SMALL
USER_CHARGES

@<TRIPOS>ATOM
      1 C1         -0.4328    1.4306    0.2085 C.3       1 <0>        -0.1134
      2 C2         -0.3270   -0.0720    0.1622 C.ar      1 <0>        -0.0886
      3 C3         -0.3836   -0.7306   -1.0523 C.ar      1 <0>        -0.1042
      4 C4         -0.2870   -2.1077   -1.0980 C.ar      1 <0>        -0.1009
      5 C5         -0.1329   -2.8306    0.0772 C.ar      1 <0>         0.1443
      6 C6         -0.0764   -2.1666    1.2950 C.ar      1 <0>        -0.1213
      7 C7         -0.1680   -0.7890    1.3338 C.ar      1 <0>        -0.1011
      8 N1         -0.0350   -4.2288    0.0341 N.pl3     1 <0>        -0.3336
      9 C8          0.7137   -5.0109    0.8446 C.2       1 <0>         0.1123
     10 C9          0.5070   -6.3003    0.4490 C.2       1 <0>        -0.0110
     11 N2         -0.3522   -6.2973   -0.5833 N.2       1 <0>        -0.1729
     12 N3         -0.6991   -5.0873   -0.8537 N.2       1 <0>        -0.0925
     13 C10         1.1251   -7.4985    1.0542 C.2       1 <0>         0.5662
     14 O1          1.8636   -7.3824    2.1813 O.3       1 <0>        -0.6863
     15 N4          0.9587   -8.6653    0.5028 N.2       1 <0>        -1.0382
     16 S1          1.6513  -10.0080    1.1810 S.o2      1 <0>         2.6860
     17 O2          3.0576   -9.8452    1.0588 O.2       1 <0>        -1.0105
     18 O3          1.0133  -10.2043    2.4355 O.2       1 <0>        -1.0045
     19 C11         1.2143  -11.3852    0.1727 C.2       1 <0>        -0.7673
     20 C12         0.0787  -12.1878    0.3232 C.2       1 <0>         0.1339
     21 N5          0.0996  -13.1046   -0.6101 N.2       1 <0>        -0.3074
     22 N6          1.2509  -12.9141   -1.3850 N.pl3     1 <0>        -0.3761
     23 C13         1.9149  -11.8498   -0.8877 C.2       1 <0>         0.1666
     24 C14         1.6589  -13.7237   -2.5358 C.3       1 <0>         0.0973
     25 C15         1.6050   -4.5475    1.9679 C.3       1 <0>        -0.0153
     26 C16         1.0852   -5.1049    3.2946 C.3       1 <0>        -0.1767
     27 C17         3.0306   -5.0486    1.7278 C.3       1 <0>        -0.1775
     28 H1          0.5625    1.8675    0.1268 H         1 <0>         0.0718
     29 H2         -1.0508    1.7770   -0.6198 H         1 <0>         0.0672
     30 H3         -0.8864    1.7340    1.1521 H         1 <0>         0.0675
     31 H4         -0.5038   -0.1677   -1.9662 H         1 <0>         0.1316
     32 H5         -0.3316   -2.6215   -2.0468 H         1 <0>         0.1360
     33 H6          0.0430   -2.7264    2.2109 H         1 <0>         0.1405
     34 H7         -0.1197   -0.2716    2.2806 H         1 <0>         0.1329
     35 H8         -0.6837  -12.0710    1.0791 H         1 <0>         0.1951
     36 H9          2.8410  -11.4432   -1.2664 H         1 <0>         0.1882
     37 H10         1.2362  -13.2996   -3.4466 H         1 <0>         0.0769
     38 H11         2.7465  -13.7296   -2.6085 H         1 <0>         0.0886
     39 H12         1.2977  -14.7442   -2.4085 H         1 <0>         0.0891
     40 H13         1.6045   -3.4581    2.0064 H         1 <0>         0.0691
     41 H14         1.1584   -6.1924    3.2853 H         1 <0>         0.1347
     42 H15         1.6829   -4.7075    4.1148 H         1 <0>         0.0527
     43 H16         0.0439   -4.8120    3.4286 H         1 <0>         0.0332
     44 H17         3.3722   -4.7163    0.7475 H         1 <0>         0.0334
     45 H18         3.6908   -4.6487    2.4974 H         1 <0>         0.0522
     46 H19         3.0443   -6.1378    1.7674 H         1 <0>         0.1322
@<TRIPOS>BOND
     1    1    2 1
     2    1   28 1
     3    1   29 1
     4    1   30 1
     5    2    7 ar
     6    2    3 ar
     7    3    4 ar
     8    3   31 1
     9    4    5 ar
    10    4   32 1
    11    5    6 ar
    12    5    8 1
    13    6    7 ar
    14    6   33 1
    15    7   34 1
    16    8   12 1
    17    8    9 1
    18    9   10 2
    19    9   25 1
    20   10   11 1
    21   10   13 1
    22   11   12 2
    23   13   14 1
    24   13   15 2
    25   15   16 1
    26   16   17 2
    27   16   18 2
    28   16   19 1
    29   19   23 2
    30   19   20 1
    31   20   21 2
    32   20   35 1
    33   21   22 1
    34   22   23 1
    35   22   24 1
    36   23   36 1
    37   24   37 1
    38   24   38 1
    39   24   39 1
    40   25   26 1
    41   25   27 1
    42   25   40 1
    43   26   41 1
    44   26   42 1
    45   26   43 1
    46   27   44 1
    47   27   45 1
    48   27   46 1
@<TRIPOS>MOLECULE
ZINC01036854
   43    46     0     0     0
SMALL
USER_CHARGES

@<TRIPOS>ATOM
      1 C1         -0.2920    1.3000    1.6747 C.3       1 <0>         0.0227
      2 N1         -0.1425   -0.0459    1.1158 N.am      1 <0>        -0.5119
      3 C2         -1.2399   -0.7123    0.6731 C.2       1 <0>         0.4722
      4 C3         -1.1090   -1.9949    0.1383 C.2       1 <0>        -0.3202
      5 C4          0.1691   -2.5966    0.0596 C.2       1 <0>         0.3997
      6 C5          1.2617   -1.8864    0.5205 C.2       1 <0>        -0.3661
      7 C6          1.0809   -0.6015    1.0435 C.2       1 <0>         0.5732
      8 O1          2.0486    0.0244    1.4448 O.2       1 <0>        -0.5223
      9 N2          2.6163   -2.4800    0.4560 N.pl3     1 <0>         0.1078
     10 O2          2.7693   -3.5890   -0.0006 O.2       1 <0>        -0.2003
     11 O3          3.5696   -1.8559    0.8601 O.3       1 <0>        -0.2317
     12 O4          0.3184   -3.8395   -0.4549 O.3       1 <0>        -0.5534
     13 C7         -2.3134   -2.6860   -0.3306 C.2       1 <0>         0.5726
     14 O5         -2.2474   -3.8053   -0.8037 O.2       1 <0>        -0.4449
     15 N3         -3.4993   -2.0469   -0.2232 N.am      1 <0>        -0.5204
     16 C8         -3.5702   -0.8116    0.2992 C.2       1 <0>         0.7172
     17 O6         -4.6569   -0.2726    0.3771 O.2       1 <0>        -0.5171
     18 N4         -2.4882   -0.1480    0.7395 N.am      1 <0>        -0.4945
     19 C9         -2.6370    1.1389    1.2736 C.ar      1 <0>         0.1162
     20 C10        -2.5685    2.2491    0.4426 C.ar      1 <0>        -0.0963
     21 C11        -2.7161    3.5163    0.9719 C.ar      1 <0>        -0.1118
     22 C12        -2.9319    3.6799    2.3279 C.ar      1 <0>        -0.0965
     23 C13        -3.0008    2.5761    3.1581 C.ar      1 <0>        -0.1120
     24 C14        -2.8592    1.3061    2.6339 C.ar      1 <0>        -0.0963
     25 C15        -4.6693   -2.6808   -0.6626 C.ar      1 <0>         0.1376
     26 C16        -5.4117   -3.4578    0.2164 C.ar      1 <0>        -0.0923
     27 C17        -6.5644   -4.0813   -0.2197 C.ar      1 <0>        -0.1117
     28 C18        -6.9794   -3.9322   -1.5303 C.ar      1 <0>        -0.1084
     29 C19        -6.2419   -3.1593   -2.4082 C.ar      1 <0>        -0.1116
     30 C20        -5.0916   -2.5283   -1.9764 C.ar      1 <0>        -0.0923
     31 H1          0.6854    1.6812    1.9705 H         1 <0>         0.1070
     32 H2         -0.7269    1.9591    0.9234 H         1 <0>         0.0886
     33 H3         -0.9457    1.2610    2.5460 H         1 <0>         0.0887
     34 H4         -2.3995    2.1220   -0.6165 H         1 <0>         0.1327
     35 H5         -2.6624    4.3803    0.3261 H         1 <0>         0.1360
     36 H6         -3.0467    4.6717    2.7396 H         1 <0>         0.1329
     37 H7         -3.1691    2.7070    4.2168 H         1 <0>         0.1360
     38 H8         -2.9175    0.4442    3.2820 H         1 <0>         0.1328
     39 H9         -5.0879   -3.5749    1.2401 H         1 <0>         0.1253
     40 H10        -7.1421   -4.6862    0.4636 H         1 <0>         0.1301
     41 H11        -7.8811   -4.4207   -1.8689 H         1 <0>         0.1274
     42 H12        -6.5681   -3.0453   -3.4315 H         1 <0>         0.1301
     43 H13        -4.5189   -1.9205   -2.6613 H         1 <0>         0.1254
@<TRIPOS>BOND
     1    1    2 1
     2    1   31 1
     3    1   32 1
     4    1   33 1
     5    2    7 am
     6    2    3 1
     7    3   18 1
     8    3    4 2
     9    4    5 1
    10    4   13 1
    11    5    6 2
    12    5   12 1
    13    6    7 1
    14    6    9 1
    15    7    8 2
    16    9   10 2
    17    9   11 1
    18   13   14 2
    19   13   15 am
    20   15   16 am
    21   15   25 1
    22   16   17 2
    23   16   18 am
    24   18   19 1
    25   19   24 ar
    26   19   20 ar
    27   20   21 ar
    28   20   34 1
    29   21   22 ar
    30   21   35 1
    31   22   23 ar
    32   22   36 1
    33   23   24 ar
    34   23   37 1
    35   24   38 1
    36   25   30 ar
    37   25   26 ar
    38   26   27 ar
    39   26   39 1
    40   27   28 ar
    41   27   40 1
    42   28   29 ar
    43   28   41 1
    44   29   30 ar
    45   29   42 1
    46   30   43 1
@<TRIPOS>MOLECULE
ZINC67001466
   46    49     0     0     0
SMALL
USER_CHARGES

@<TRIPOS>ATOM
      1 C1         -0.2206    1.4987    0.0017 C.3       1 <0>        -0.0937
      2 C2         -0.1642   -0.0072   -0.0047 C.2       1 <0>         0.0993
      3 C3         -0.0955   -0.8251   -1.1136 C.2       1 <0>        -0.0445
      4 N1         -0.0624   -2.1027   -0.6920 N.2       1 <0>        -0.1782
      5 N2         -0.1055   -2.1351    0.5939 N.2       1 <0>        -0.0833
      6 N3         -0.1652   -0.8198    1.0745 N.pl3     1 <0>        -0.3336
      7 C4         -0.2186   -0.4234    2.4180 C.ar      1 <0>         0.1539
      8 C5          0.4194    0.7559    2.8191 C.ar      1 <0>        -0.1045
      9 C6          0.3844    1.1650    4.1147 C.ar      1 <0>        -0.0698
     10 C7         -0.3005    0.3993    5.0753 C.ar      1 <0>         0.1243
     11 C8         -0.9486   -0.7961    4.6753 C.ar      1 <0>        -0.0885
     12 C9         -0.9031   -1.1948    3.3304 C.ar      1 <0>        -0.0809
     13 C10        -1.6325   -1.5582    5.6413 C.ar      1 <0>        -0.0509
     14 C11        -1.6404   -1.1073    6.9308 C.ar      1 <0>        -0.1738
     15 C12        -0.9830    0.0765    7.2569 C.ar      1 <0>         0.1318
     16 N4         -0.3473    0.7840    6.3546 N.ar      1 <0>        -0.4712
     17 C13        -0.0638   -0.3784   -2.5134 C.2       1 <0>         0.4010
     18 O1         -0.2039    0.9308   -2.8069 O.3       1 <0>        -0.6510
     19 C14         0.1106   -1.3057   -3.5358 C.2       1 <0>        -0.4115
     20 C15         0.2696   -0.8600   -4.8873 C.1       1 <0>         0.3332
     21 N5          0.3958   -0.5063   -5.9595 N.1       1 <0>        -0.5395
     22 C16         0.1314   -2.7387   -3.2296 C.2       1 <0>         0.6339
     23 O2          1.1942   -3.3194   -3.1072 O.2       1 <0>        -0.5571
     24 N6         -1.0260   -3.4135   -3.0835 N.am      1 <0>        -0.6072
     25 C17        -2.3205   -2.7151   -3.1256 C.3       1 <0>         0.0854
     26 C18        -3.2321   -3.4459   -4.1180 C.3       1 <0>         0.0477
     27 O3         -3.2711   -4.8358   -3.7857 O.3       1 <0>        -0.3865
     28 C19        -2.0069   -5.4963   -3.8822 C.3       1 <0>         0.0486
     29 C20        -1.0328   -4.8713   -2.8833 C.3       1 <0>         0.0846
     30 H1          0.7923    1.9001    0.0330 H         1 <0>         0.0852
     31 H2         -0.7218    1.8473   -0.9013 H         1 <0>         0.1225
     32 H3         -0.7731    1.8379    0.8779 H         1 <0>         0.0661
     33 H4          0.9478    1.3497    2.0880 H         1 <0>         0.1452
     34 H5          0.8827    2.0776    4.4065 H         1 <0>         0.1482
     35 H6         -1.3973   -2.1016    3.0144 H         1 <0>         0.1449
     36 H7         -2.1372   -2.4737    5.3704 H         1 <0>         0.1424
     37 H8         -2.1561   -1.6679    7.6964 H         1 <0>         0.1399
     38 H9         -0.9975    0.4210    8.2804 H         1 <0>         0.1608
     39 H10        -2.7748   -2.7239   -2.1348 H         1 <0>         0.0609
     40 H11        -2.1720   -1.6860   -3.4528 H         1 <0>         0.1034
     41 H12        -4.2381   -3.0299   -4.0626 H         1 <0>         0.0990
     42 H13        -2.8421   -3.3239   -5.1285 H         1 <0>         0.0541
     43 H14        -2.1315   -6.5555   -3.6571 H         1 <0>         0.0982
     44 H15        -1.6124   -5.3818   -4.8918 H         1 <0>         0.0511
     45 H16        -0.0320   -5.2695   -3.0501 H         1 <0>         0.0946
     46 H17        -1.3552   -5.1009   -1.8677 H         1 <0>         0.0654
@<TRIPOS>BOND
     1    1    2 1
     2    1   30 1
     3    1   31 1
     4    1   32 1
     5    2    6 1
     6    2    3 2
     7    3    4 1
     8    3   17 1
     9    4    5 2
    10    5    6 1
    11    6    7 1
    12    7   12 ar
    13    7    8 ar
    14    8    9 ar
    15    8   33 1
    16    9   10 ar
    17    9   34 1
    18   10   16 ar
    19   10   11 ar
    20   11   12 ar
    21   11   13 ar
    22   12   35 1
    23   13   14 ar
    24   13   36 1
    25   14   15 ar
    26   14   37 1
    27   15   16 ar
    28   15   38 1
    29   17   18 1
    30   17   19 2
    31   19   20 1
    32   19   22 1
    33   20   21 3
    34   22   23 2
    35   22   24 am
    36   24   29 1
    37   24   25 1
    38   25   26 1
    39   25   39 1
    40   25   40 1
    41   26   27 1
    42   26   41 1
    43   26   42 1
    44   27   28 1
    45   28   29 1
    46   28   43 1
    47   28   44 1
    48   29   45 1
    49   29   46 1
@<TRIPOS>MOLECULE
ZINC16920226
   41    43     0     0     0
SMALL
USER_CHARGES
2-[[2-[(5Z)-5-[(2-fluorophenyl)methylene]-2,4-dioxo-thiazolidin-3-yl]acetyl]amino]-5-hydroxy-benzoic acid
@<TRIPOS>ATOM
      1 C1         -0.8292   11.8856    0.6144 C.ar      1 <0>        -0.1257
      2 C2         -1.3827   12.9199   -0.1218 C.ar      1 <0>        -0.0719
      3 C3         -2.0718   12.6558   -1.2914 C.ar      1 <0>        -0.1557
      4 C4         -2.2137   11.3547   -1.7347 C.ar      1 <0>         0.1317
      5 C5         -1.6561   10.3031   -0.9947 C.ar      1 <0>        -0.1188
      6 C6         -0.9653   10.5816    0.1903 C.ar      1 <0>        -0.0660
      7 C7         -1.8010    8.9161   -1.4570 C.2       1 <0>         0.0584
      8 C8         -1.9350    7.9112   -0.5557 C.2       1 <0>        -0.1861
      9 C9         -2.1852    6.4725   -0.7795 C.2       1 <0>         0.5593
     10 O1         -2.3050    6.0109   -1.8991 O.2       1 <0>        -0.4544
     11 N1         -2.2718    5.7118    0.2987 N.am      1 <0>        -0.5591
     12 C10        -2.1434    6.2284    1.5377 C.2       1 <0>         0.5529
     13 O2         -2.2052    5.6514    2.6067 O.2       1 <0>        -0.4114
     14 S1         -1.8580    7.9638    1.2295 S.3       1 <0>        -0.0474
     15 C11        -2.5188    4.2761    0.1438 C.3       1 <0>         0.0742
     16 C12        -1.2034    3.5487    0.0373 C.2       1 <0>         0.4997
     17 O3         -0.1620    4.1684    0.0859 O.2       1 <0>        -0.5289
     18 N2         -1.1841    2.2093   -0.1121 N.am      1 <0>        -0.6337
     19 C13         0.0291    1.5228   -0.0895 C.ar      1 <0>         0.1700
     20 C14         1.1209    2.0598    0.5790 C.ar      1 <0>        -0.1338
     21 C15         2.3235    1.3834    0.5968 C.ar      1 <0>        -0.1236
     22 C16         2.4521    0.1613   -0.0528 C.ar      1 <0>         0.0621
     23 C17         1.3747   -0.3872   -0.7230 C.ar      1 <0>        -0.0785
     24 C18         0.1524    0.2898   -0.7471 C.ar      1 <0>        -0.1318
     25 C19        -1.0009   -0.2883   -1.4599 C.2       1 <0>         0.4981
     26 O4         -2.0321    0.3463   -1.5625 O.co2     1 <0>        -0.6327
     27 O5          3.6418   -0.4967   -0.0294 O.3       1 <0>        -0.4996
     28 F1         -2.8877   11.0972   -2.8769 F         1 <0>        -0.1281
     29 H1         -0.2928   12.1015    1.5266 H         1 <0>         0.1382
     30 H2         -1.2759   13.9389    0.2198 H         1 <0>         0.1382
     31 H3         -2.5003   13.4683   -1.8594 H         1 <0>         0.1424
     32 H4         -0.5365    9.7767    0.7688 H         1 <0>         0.1444
     33 H5         -1.8008    8.6966   -2.5145 H         1 <0>         0.1665
     34 H6         -3.1037    4.1035   -0.7596 H         1 <0>         0.1387
     35 H7         -3.0693    3.9067    1.0091 H         1 <0>         0.1333
     36 H8         -2.0143    1.7231   -0.2353 H         1 <0>         0.4292
     37 H9          1.0290    3.0090    1.0858 H         1 <0>         0.1433
     38 H10         3.1697    1.8061    1.1181 H         1 <0>         0.1245
     39 H11         1.4774   -1.3367   -1.2272 H         1 <0>         0.1408
     40 H12         4.2320   -0.2684   -0.7606 H         1 <0>         0.3806
     41 O6         -0.9118   -1.5206   -1.9979 O.co2     1 <0>        -0.7393
@<TRIPOS>BOND
     1    1    6 ar
     2    1    2 ar
     3    1   29 1
     4    2    3 ar
     5    2   30 1
     6    3    4 ar
     7    3   31 1
     8    4    5 ar
     9    4   28 1
    10    5    6 ar
    11    5    7 1
    12    6   32 1
    13    7    8 2
    14    7   33 1
    15    8   14 1
    16    8    9 1
    17    9   10 2
    18    9   11 am
    19   11   12 am
    20   11   15 1
    21   12   13 2
    22   12   14 1
    23   15   16 1
    24   15   34 1
    25   15   35 1
    26   16   17 2
    27   16   18 am
    28   18   19 1
    29   18   36 1
    30   19   24 ar
    31   19   20 ar
    32   20   21 ar
    33   20   37 1
    34   21   22 ar
    35   21   38 1
    36   22   23 ar
    37   22   27 1
    38   23   24 ar
    39   23   39 1
    40   24   25 1
    41   25   26 2
    42   25   41 1
    43   27   40 1
@<TRIPOS>MOLECULE
ZINC38577067
   32    34     0     0     0
SMALL
USER_CHARGES

@<TRIPOS>ATOM
      1 C1         -0.0167    1.3782    0.0096 C.ar      1 <0>        -0.0860
      2 C2          1.1707    2.0857    0.0021 C.ar      1 <0>        -0.0958
      3 C3          2.3778    1.4105   -0.0131 C.ar      1 <0>        -0.0806
      4 C4          2.3961    0.0274   -0.0207 C.ar      1 <0>        -0.0946
      5 C5          1.2082   -0.6793   -0.0132 C.ar      1 <0>        -0.0778
      6 C6          0.0021   -0.0041    0.0020 C.ar      1 <0>        -0.1107
      7 C7         -1.2928   -0.7750    0.0103 C.3       1 <0>         0.3343
      8 H1         -2.0803   -0.2018   -0.4790 H         1 <0>         0.1017
      9 N1         -1.1197   -2.0812   -0.6493 N.pl3     1 <0>        -0.6715
     10 N2         -1.4035   -3.0362    0.3380 N.2       1 <0>        -0.2979
     11 C8         -1.7086   -2.4564    1.4485 C.2       1 <0>         0.1962
     12 O1         -1.6725   -1.1051    1.3543 O.3       1 <0>        -0.3015
     13 S1         -2.1277   -3.3238    2.9238 S.3       1 <0>         0.0977
     14 C9         -2.0103   -5.0718    2.4535 C.3       1 <0>        -0.0712
     15 C10        -2.3490   -5.9354    3.6412 C.2       1 <0>         0.4402
     16 O2         -2.3276   -7.2774    3.5261 O.3       1 <0>        -0.6540
     17 N3         -2.6623   -5.3844    4.7786 N.2       1 <0>        -0.6554
     18 C11        -2.9688   -6.1658    5.8532 C.2       1 <0>         0.5194
     19 H2         -3.3748   -4.8047    7.3809 H         1 <0>         0.4253
     20 N4         -2.9855   -7.4855    5.8767 N.2       1 <0>        -0.5610
     21 C12        -3.3284   -7.9083    7.0915 C.2       1 <0>         0.1915
     22 N5         -3.5367   -6.8752    7.8646 N.2       1 <0>        -0.3747
     23 N6         -3.3051   -5.7273    7.0897 N.pl3     1 <0>        -0.5135
     24 Br1         4.0026    2.3779   -0.0240 Br        1 <0>        -0.0515
     25 H3         -0.9592    1.9053    0.0260 H         1 <0>         0.1361
     26 H4          1.1559    3.1656    0.0077 H         1 <0>         0.1356
     27 H5          3.3384   -0.5003   -0.0329 H         1 <0>         0.1348
     28 H6          1.2224   -1.7592   -0.0191 H         1 <0>         0.1348
     29 H7         -0.8642   -2.2457   -1.5705 H         1 <0>         0.4442
     30 H8         -2.7096   -5.2778    1.6432 H         1 <0>         0.1065
     31 H9         -0.9954   -5.2916    2.1221 H         1 <0>         0.1059
     32 H10        -3.4203   -8.9419    7.3909 H         1 <0>         0.1936
@<TRIPOS>BOND
     1    1    6 ar
     2    1    2 ar
     3    1   25 1
     4    2    3 ar
     5    2   26 1
     6    3    4 ar
     7    3   24 1
     8    4    5 ar
     9    4   27 1
    10    5    6 ar
    11    5   28 1
    12    6    7 1
    13    7    8 1
    14    7   12 1
    15    7    9 1
    16    9   10 1
    17    9   29 1
    18   10   11 2
    19   11   12 1
    20   11   13 1
    21   13   14 1
    22   14   15 1
    23   14   30 1
    24   14   31 1
    25   15   16 1
    26   15   17 2
    27   17   18 1
    28   18   20 2
    29   18   23 1
    30   19   23 1
    31   20   21 1
    32   21   32 1
    33   21   22 2
    34   22   23 1
@<TRIPOS>MOLECULE
ZINC10159163
   44    46     0     0     0
SMALL
USER_CHARGES

@<TRIPOS>ATOM
      1 C1         -0.0184    1.5028    0.0103 C.3       1 <0>        -0.1088
      2 C2          0.0021   -0.0041    0.0020 C.ar      1 <0>        -0.1114
      3 C3          0.0057   -0.6889   -1.1980 C.ar      1 <0>        -0.0848
      4 C4          0.0240   -2.0712   -1.2062 C.ar      1 <0>        -0.1551
      5 C5          0.0391   -2.7720   -0.0142 C.ar      1 <0>        -0.0860
      6 C6          0.0359   -2.0920    1.1881 C.ar      1 <0>        -0.2068
      7 C7          0.0230   -0.7046    1.1991 C.ar      1 <0>         0.1282
      8 O1          0.0255   -0.0332    2.3806 O.3       1 <0>        -0.2843
      9 C8          0.0475   -0.8196    3.5736 C.3       1 <0>         0.0528
     10 C9          0.0471    0.0902    4.7750 C.2       1 <0>         0.5109
     11 O2          0.0297    1.2935    4.6245 O.2       1 <0>        -0.5204
     12 N1          0.0660   -0.4334    6.0168 N.am      1 <0>        -0.5125
     13 N2          0.0656    0.4123    7.1337 N.am      1 <0>        -0.5273
     14 C10         0.0846   -0.1113    8.3755 C.2       1 <0>         0.6179
     15 O3          0.1021   -1.3177    8.5264 O.2       1 <0>        -0.5217
     16 C11         0.0842    0.7790    9.5512 C.2       1 <0>        -0.1200
     17 C12         0.1084    0.3783   10.9114 C.2       1 <0>         0.2443
     18 C13         0.0982    1.5308   11.6289 C.2       1 <0>        -0.2600
     19 N3          0.0694    2.5572   10.7354 N.pl3     1 <0>        -0.2169
     20 N4          0.0670    2.0988    9.5354 N.2       1 <0>        -0.2724
     21 C14         0.0500    3.9162   11.0751 C.ar      1 <0>         0.1749
     22 C15         0.0657    4.3001   12.4095 C.ar      1 <0>        -0.1387
     23 C16         0.0470    5.6407   12.7411 C.ar      1 <0>        -0.0962
     24 C17         0.0128    6.6002   11.7459 C.ar      1 <0>        -0.1469
     25 C18        -0.0033    6.2211   10.4161 C.ar      1 <0>        -0.0986
     26 C19         0.0210    4.8822   10.0779 C.ar      1 <0>        -0.1316
     27 O4          0.1361   -0.8932   11.3953 O.3       1 <0>        -0.7019
     28 H1          1.0042    1.8801    0.0026 H         1 <0>         0.0690
     29 H2         -0.5455    1.8639   -0.8728 H         1 <0>         0.0638
     30 H3         -0.5286    1.8543    0.9071 H         1 <0>         0.0748
     31 H4         -0.0060   -0.1439   -2.1303 H         1 <0>         0.1284
     32 H5          0.0261   -2.6047   -2.1453 H         1 <0>         0.1228
     33 H6          0.0529   -3.8519   -0.0233 H         1 <0>         0.1248
     34 H7          0.0477   -2.6398    2.1188 H         1 <0>         0.1301
     35 H8         -0.8338   -1.4603    3.6027 H         1 <0>         0.0989
     36 H9          0.9459   -1.4367    3.5855 H         1 <0>         0.0990
     37 H10         0.0800   -1.3958    6.1372 H         1 <0>         0.4308
     38 H11         0.0517    1.3747    7.0133 H         1 <0>         0.4335
     39 H12         0.1102    1.6169   12.7054 H         1 <0>         0.1555
     40 H13         0.0920    3.5512   13.1872 H         1 <0>         0.1329
     41 H14         0.0588    5.9399   13.7787 H         1 <0>         0.1264
     42 H15        -0.0017    7.6479   12.0077 H         1 <0>         0.1211
     43 H16        -0.0307    6.9728    9.6412 H         1 <0>         0.1256
     44 H17         0.0132    4.5868    9.0392 H         1 <0>         0.1362
@<TRIPOS>BOND
     1    1    2 1
     2    1   28 1
     3    1   29 1
     4    1   30 1
     5    2    7 ar
     6    2    3 ar
     7    3    4 ar
     8    3   31 1
     9    4    5 ar
    10    4   32 1
    11    5    6 ar
    12    5   33 1
    13    6    7 ar
    14    6   34 1
    15    7    8 1
    16    8    9 1
    17    9   10 1
    18    9   35 1
    19    9   36 1
    20   10   11 2
    21   10   12 am
    22   12   13 1
    23   12   37 1
    24   13   14 am
    25   13   38 1
    26   14   15 2
    27   14   16 1
    28   16   20 2
    29   16   17 1
    30   17   18 2
    31   17   27 1
    32   18   19 1
    33   18   39 1
    34   19   20 1
    35   19   21 1
    36   21   26 ar
    37   21   22 ar
    38   22   23 ar
    39   22   40 1
    40   23   24 ar
    41   23   41 1
    42   24   25 ar
    43   24   42 1
    44   25   26 ar
    45   25   43 1
    46   26   44 1
@<TRIPOS>MOLECULE
ZINC63426606
   46    49     0     0     0
SMALL
USER_CHARGES

@<TRIPOS>ATOM
      1 C1          7.7948  -14.4452   -1.2383 C.3       1 <0>        -0.1506
      2 C2          6.9995  -13.2592   -1.7875 C.3       1 <0>         0.0590
      3 O1          5.9218  -12.9562   -0.8994 O.3       1 <0>        -0.3540
      4 C3          5.1216  -11.9333   -1.2388 C.2       1 <0>         0.4590
      5 O2          5.3294  -11.3156   -2.2563 O.2       1 <0>        -0.4853
      6 C4          3.9642  -11.5552   -0.3509 C.3       1 <0>        -0.0543
      7 C5          3.3067  -10.3092   -0.8858 C.2       1 <0>         0.1082
      8 C6          2.1893  -10.3718   -1.6171 C.2       1 <0>        -0.2652
      9 S1          1.8757   -8.6513   -1.9643 S.3       1 <0>         0.1367
     10 C7          3.1887   -7.9837   -1.1535 C.2       1 <0>         0.3379
     11 N1          3.5231   -6.7016   -1.0371 N.2       1 <0>        -0.5030
     12 C8          4.6753   -6.3619   -0.4499 C.2       1 <0>         0.4889
     13 O3          5.4496   -7.3131    0.1218 O.3       1 <0>        -0.7359
     14 C9          5.0767   -5.0353   -0.4268 C.2       1 <0>        -0.4773
     15 C10         6.4447   -4.6535    0.1115 C.3       1 <0>         0.2501
     16 H1          6.5142   -5.0003    1.1425 H         1 <0>         0.0307
     17 C11         6.7725   -3.1781    0.0858 C.ar      1 <0>        -0.1101
     18 C12         7.9700   -2.6719    0.5371 C.ar      1 <0>        -0.0601
     19 C13         8.1917   -1.3039    0.4777 C.ar      1 <0>        -0.1736
     20 C14         7.2251   -0.4493   -0.0276 C.ar      1 <0>        -0.0703
     21 C15         6.0248   -0.9608   -0.4792 C.ar      1 <0>        -0.1673
     22 C16         5.8134   -2.3209   -0.4170 C.ar      1 <0>         0.1802
     23 N2          4.5831   -2.7284   -0.8935 N.am      1 <0>        -0.5664
     24 C17         4.2313   -4.0307   -0.9036 C.2       1 <0>         0.5777
     25 O4          3.1351   -4.3414   -1.3399 O.2       1 <0>        -0.5544
     26 C18         3.8429   -1.5334   -1.3409 C.3       1 <0>         0.1155
     27 C19         4.7834   -0.3421   -1.0750 C.3       1 <0>        -0.0751
     28 O5          7.4348   -5.3410   -0.6561 O.3       1 <0>        -0.5828
     29 N3          3.8236   -9.0744   -0.6392 N.pl3     1 <0>        -0.6286
     30 H2          4.6304   -8.9730   -0.1103 H         1 <0>         0.4280
     31 H3          8.1937  -14.1916   -0.2562 H         1 <0>         0.0669
     32 H4          7.1405  -15.3127   -1.1518 H         1 <0>         0.0657
     33 H5          8.6169  -14.6763   -1.9158 H         1 <0>         0.0785
     34 H6          7.6538  -12.3917   -1.8740 H         1 <0>         0.0689
     35 H7          6.6006  -13.5128   -2.7697 H         1 <0>         0.0675
     36 H8          3.2394  -12.3692   -0.3325 H         1 <0>         0.1354
     37 H9          4.3273  -11.3691    0.6599 H         1 <0>         0.1207
     38 H10         1.6230  -11.2403   -1.9197 H         1 <0>         0.1955
     39 H11         8.7279   -3.3317    0.9330 H         1 <0>         0.1233
     40 H12         9.1292   -0.8997    0.8300 H         1 <0>         0.1174
     41 H13         7.4099    0.6140   -0.0677 H         1 <0>         0.1172
     42 H14         3.6177   -1.6059   -2.4049 H         1 <0>         0.0715
     43 H15         2.9230   -1.4230   -0.7668 H         1 <0>         0.0717
     44 H16         4.3277    0.3513   -0.3681 H         1 <0>         0.0821
     45 H17         5.0234    0.1681   -2.0079 H         1 <0>         0.0818
     46 H18         7.3606   -6.3045   -0.6211 H         1 <0>         0.3783
@<TRIPOS>BOND
     1    1    2 1
     2    1   31 1
     3    1   32 1
     4    1   33 1
     5    2    3 1
     6    2   34 1
     7    2   35 1
     8    3    4 1
     9    4    5 2
    10    4    6 1
    11    6    7 1
    12    6   36 1
    13    6   37 1
    14    7   29 1
    15    7    8 2
    16    8    9 1
    17    8   38 1
    18    9   10 1
    19   10   11 2
    20   10   29 1
    21   11   12 1
    22   12   13 1
    23   12   14 2
    24   14   24 1
    25   14   15 1
    26   15   16 1
    27   15   17 1
    28   15   28 1
    29   17   22 ar
    30   17   18 ar
    31   18   19 ar
    32   18   39 1
    33   19   20 ar
    34   19   40 1
    35   20   21 ar
    36   20   41 1
    37   21   27 1
    38   21   22 ar
    39   22   23 1
    40   23   24 am
    41   23   26 1
    42   24   25 2
    43   26   27 1
    44   26   42 1
    45   26   43 1
    46   27   44 1
    47   27   45 1
    48   28   46 1
    49   29   30 1
@<TRIPOS>MOLECULE
ZINC67619308
   46    46     0     0     0
SMALL
USER_CHARGES

@<TRIPOS>ATOM
      1 C1          2.0509    1.1517   -1.3664 C.3       1 <0>        -0.1311
      2 C2          2.0915   -0.3696   -1.2094 C.3       1 <0>        -0.0854
      3 S1          0.7286   -1.1111   -2.1494 S.3       1 <0>        -0.2535
      4 C3          1.0029   -2.8967   -1.9855 C.3       1 <0>        -0.0457
      5 H1          1.0681   -3.1589   -0.9295 H         1 <0>         0.0892
      6 C4         -0.1619   -3.6527   -2.6278 C.3       1 <0>        -0.0659
      7 C5          0.0803   -5.1587   -2.5093 C.3       1 <0>        -0.1419
      8 C6         -1.4637   -3.2876   -1.9116 C.3       1 <0>        -0.1433
      9 C7          2.2881   -3.2730   -2.6767 C.2       1 <0>         0.3437
     10 O1          2.4595   -2.9874   -3.9792 O.3       1 <0>        -0.6460
     11 C8          3.2766   -3.9029   -1.9815 C.2       1 <0>        -0.4123
     12 C9          4.5303   -4.1832   -2.6143 C.1       1 <0>         0.3485
     13 N1          5.5247   -4.4056   -3.1163 N.1       1 <0>        -0.5567
     14 C10         3.0557   -4.2950   -0.5799 C.2       1 <0>         0.5342
     15 O2          2.9016   -3.4405    0.2747 O.2       1 <0>        -0.5280
     16 C11         3.0211   -5.7133   -0.2126 C.2       1 <0>        -0.4263
     17 C12         2.9391   -6.1040    1.1296 C.2       1 <0>         0.5213
     18 N2          2.9086   -7.4375    1.4322 N.am      1 <0>        -0.5495
     19 C13         2.9569   -8.3628    0.4584 C.2       1 <0>         0.7113
     20 O3          2.9285   -9.5404    0.7585 O.2       1 <0>        -0.5476
     21 N3          3.0354   -8.0194   -0.8385 N.am      1 <0>        -0.5622
     22 C14         3.0641   -6.7245   -1.2110 C.2       1 <0>         0.5629
     23 O4          3.1309   -6.4241   -2.3890 O.2       1 <0>        -0.4625
     24 C15         3.0855   -9.0668   -1.8616 C.3       1 <0>         0.0834
     25 C16         2.8229   -7.8615    2.8319 C.3       1 <0>         0.0712
     26 N4          2.8908   -5.1693    2.1197 N.pl3     1 <0>        -0.8093
     27 H2          2.1530    1.4111   -2.4202 H         1 <0>         0.0611
     28 H3          1.1010    1.5307   -0.9893 H         1 <0>         0.0562
     29 H4          2.8698    1.5972   -0.8016 H         1 <0>         0.0627
     30 H5          3.0414   -0.7486   -1.5865 H         1 <0>         0.0840
     31 H6          1.9894   -0.6290   -0.1556 H         1 <0>         0.0780
     32 H7         -0.2369   -3.3784   -3.6801 H         1 <0>         0.0812
     33 H8          0.1553   -5.4330   -1.4571 H         1 <0>         0.0429
     34 H9         -0.7495   -5.6973   -2.9669 H         1 <0>         0.0475
     35 H10         1.0077   -5.4189   -3.0196 H         1 <0>         0.0786
     36 H11        -1.6855   -2.2331   -2.0762 H         1 <0>         0.0621
     37 H12        -2.2779   -3.8959   -2.3053 H         1 <0>         0.0493
     38 H13        -1.3550   -3.4736   -0.8431 H         1 <0>         0.0496
     39 H14         2.0720   -9.3173   -2.1749 H         1 <0>         0.0696
     40 H15         3.6534   -8.7090   -2.7204 H         1 <0>         0.0937
     41 H16         3.5684   -9.9534   -1.4505 H         1 <0>         0.0843
     42 H17         1.7758   -7.9568    3.1192 H         1 <0>         0.0803
     43 H18         3.3214   -8.8235    2.9512 H         1 <0>         0.1027
     44 H19         3.3078   -7.1198    3.4666 H         1 <0>         0.0826
     45 H20         2.8012   -4.2298    1.8958 H         1 <0>         0.4382
     46 H21         2.9461   -5.4434    3.0485 H         1 <0>         0.3967
@<TRIPOS>BOND
     1    1    2 1
     2    1   27 1
     3    1   28 1
     4    1   29 1
     5    2    3 1
     6    2   30 1
     7    2   31 1
     8    3    4 1
     9    4    5 1
    10    4    6 1
    11    4    9 1
    12    6    7 1
    13    6    8 1
    14    6   32 1
    15    7   33 1
    16    7   34 1
    17    7   35 1
    18    8   36 1
    19    8   37 1
    20    8   38 1
    21    9   10 1
    22    9   11 2
    23   11   12 1
    24   11   14 1
    25   12   13 3
    26   14   15 2
    27   14   16 1
    28   16   22 1
    29   16   17 2
    30   17   18 1
    31   17   26 1
    32   18   19 am
    33   18   25 1
    34   19   20 2
    35   19   21 am
    36   21   22 am
    37   21   24 1
    38   22   23 2
    39   24   39 1
    40   24   40 1
    41   24   41 1
    42   25   42 1
    43   25   43 1
    44   25   44 1
    45   26   45 1
    46   26   46 1
@<TRIPOS>MOLECULE
ZINC12293686
   58    61     0     0     0
SMALL
USER_CHARGES
(4S)-1'-[(2R)-2-(4-ethoxyphenyl)-2-hydroxy-ethyl]-6-fluoro-spiro[chroman-2,4'-piperidine]-4-ol
@<TRIPOS>ATOM
      1 C1         12.9138   10.9501   -0.8216 C.3       1 <0>        -0.1563
      2 C2         11.5773   10.2736   -1.1334 C.3       1 <0>         0.0529
      3 O1         10.8997    9.9721    0.0881 O.3       1 <0>        -0.3099
      4 C3          9.6883    9.3644   -0.0121 C.ar      1 <0>         0.1560
      5 C4          8.9753    9.0429    1.1337 C.ar      1 <0>        -0.1483
      6 C5          7.7439    8.4256    1.0291 C.ar      1 <0>        -0.0591
      7 C6          7.2219    8.1281   -0.2162 C.ar      1 <0>        -0.1864
      8 C7          7.9331    8.4424   -1.3595 C.ar      1 <0>        -0.0621
      9 C8          9.1624    9.0649   -1.2605 C.ar      1 <0>        -0.2055
     10 C9          5.8783    7.4547   -0.3274 C.3       1 <0>         0.1392
     11 H1          5.2881    7.6723    0.5628 H         1 <0>         0.1318
     12 C10         6.0746    5.9425   -0.4520 C.3       1 <0>        -0.0375
     13 C11         4.8958    3.8280   -0.4437 C.3       1 <0>         0.0029
     14 C12         3.5390    3.1708   -0.7091 C.3       1 <0>        -0.1759
     15 C13         2.5178    3.6960    0.3017 C.3       1 <0>         0.1141
     16 C14         2.4368    5.2196    0.1991 C.3       1 <0>        -0.1273
     17 C15         3.8259    5.8173    0.4357 C.3       1 <0>        -0.0099
     18 C16         1.1436    3.0860    0.0050 C.3       1 <0>        -0.1424
     19 C17         1.2864    1.5618   -0.0018 C.3       1 <0>         0.1518
     20 H2          1.8224    1.2519   -0.8989 H         1 <0>         0.0748
     21 C18         2.0523    1.1178    1.2186 C.ar      1 <0>        -0.1682
     22 C19         1.9852   -0.2140    1.5970 C.ar      1 <0>        -0.1154
     23 C20         2.6785   -0.6594    2.7074 C.ar      1 <0>         0.0860
     24 C21         3.4444    0.2273    3.4457 C.ar      1 <0>        -0.1120
     25 C22         3.5130    1.5538    3.0722 C.ar      1 <0>        -0.1131
     26 C23         2.8158    2.0041    1.9557 C.ar      1 <0>         0.1197
     27 O2          2.9076    3.3187    1.6214 O.3       1 <0>        -0.3021
     28 F1          2.6091   -1.9585    3.0716 F         1 <0>        -0.1300
     29 O3         -0.0110    0.9628    0.0073 O.3       1 <0>        -0.5483
     30 O4          5.1948    7.9432   -1.4833 O.3       1 <0>        -0.5491
     31 H3         12.7341   11.8721   -0.2686 H         1 <0>         0.0699
     32 H4         13.5287   10.2801   -0.2209 H         1 <0>         0.0693
     33 H5         13.4306   11.1801   -1.7533 H         1 <0>         0.0841
     34 H6         11.7570    9.3517   -1.6864 H         1 <0>         0.0653
     35 H7         10.9623   10.9437   -1.7341 H         1 <0>         0.0663
     36 H8          9.3828    9.2747    2.1067 H         1 <0>         0.1400
     37 H9          7.1883    8.1754    1.9208 H         1 <0>         0.1338
     38 H10         7.5253    8.2048   -2.3309 H         1 <0>         0.1242
     39 H11         9.7155    9.3142   -2.1539 H         1 <0>         0.1358
     40 H12         6.5960    5.5698    0.4297 H         1 <0>         0.1434
     41 H13         6.6649    5.7248   -1.3422 H         1 <0>         0.1327
     42 H14         5.2329    3.5727    0.5609 H         1 <0>         0.1352
     43 H15         5.6222    3.4689   -1.1728 H         1 <0>         0.1322
     44 H16         3.6316    2.0898   -0.6047 H         1 <0>         0.1182
     45 H17         3.2087    3.4127   -1.7193 H         1 <0>         0.1086
     46 H18         2.0847    5.4991   -0.7939 H         1 <0>         0.1127
     47 H19         1.7447    5.5986    0.9510 H         1 <0>         0.1263
     48 H20         4.1694    5.5530    1.4359 H         1 <0>         0.1380
     49 H21         3.7749    6.9023    0.3443 H         1 <0>         0.1420
     50 H22         0.7929    3.4267   -0.9692 H         1 <0>         0.1008
     51 H23         0.4344    3.3853    0.7768 H         1 <0>         0.1010
     52 H24         1.3882   -0.9069    1.0225 H         1 <0>         0.1408
     53 H25         3.9871   -0.1190    4.3128 H         1 <0>         0.1500
     54 H26         4.1103    2.2448    3.6484 H         1 <0>         0.1447
     55 H27         0.0021   -0.0041    0.0020 H         1 <0>         0.3877
     56 H28         5.6635    7.7838   -2.3140 H         1 <0>         0.3870
     57 N1          4.7547    5.2929   -0.5881 N.4       1 <0>        -0.3887
     58 H29         4.3753    5.5006   -1.5193 H         1 <0>         0.4284
@<TRIPOS>BOND
     1    1    2 1
     2    1   31 1
     3    1   32 1
     4    1   33 1
     5    2    3 1
     6    2   34 1
     7    2   35 1
     8    3    4 1
     9    4    9 ar
    10    4    5 ar
    11    5    6 ar
    12    5   36 1
    13    6    7 ar
    14    6   37 1
    15    7    8 ar
    16    7   10 1
    17    8    9 ar
    18    8   38 1
    19    9   39 1
    20   10   11 1
    21   10   12 1
    22   10   30 1
    23   12   40 1
    24   12   41 1
    25   12   57 1
    26   13   14 1
    27   13   42 1
    28   13   43 1
    29   13   57 1
    30   14   15 1
    31   14   44 1
    32   14   45 1
    33   15   27 1
    34   15   16 1
    35   15   18 1
    36   16   17 1
    37   16   46 1
    38   16   47 1
    39   17   48 1
    40   17   49 1
    41   17   57 1
    42   18   19 1
    43   18   50 1
    44   18   51 1
    45   19   20 1
    46   19   21 1
    47   19   29 1
    48   21   26 ar
    49   21   22 ar
    50   22   23 ar
    51   22   52 1
    52   23   24 ar
    53   23   28 1
    54   24   25 ar
    55   24   53 1
    56   25   26 ar
    57   25   54 1
    58   26   27 1
    59   29   55 1
    60   30   56 1
    61   57   58 1
@<TRIPOS>MOLECULE
ZINC39467242
   50    53     0     0     0
SMALL
USER_CHARGES

@<TRIPOS>ATOM
      1 C1         -0.0225    1.8097    0.0120 C.3       1 <0>        -0.1545
      2 S1          0.0021   -0.0041    0.0020 S.3       1 <0>        -0.0736
      3 C2          0.8767   -0.4266    1.4721 C.2       1 <0>        -0.0595
      4 C3          1.3341    0.5361    2.2856 C.2       1 <0>        -0.1658
      5 C4          2.0650    0.1383    3.5382 C.3       1 <0>        -0.0505
      6 H1          3.1024   -0.0925    3.2958 H         1 <0>         0.1043
      7 C5          2.0220    1.2451    4.5869 C.3       1 <0>        -0.1241
      8 C6          2.7480    0.7760    5.8558 C.3       1 <0>        -0.0519
      9 H2          3.7960    0.5894    5.6212 H         1 <0>         0.1626
     10 C7          2.6548    1.9136    6.8807 C.3       1 <0>         0.0771
     11 O1          3.3982    1.5549    8.0600 O.3       1 <0>        -0.7021
     12 P1          3.1075    0.0982    8.7240 P.3       1 <0>         2.5277
     13 O2          1.8850    0.1487    9.5568 O.2       1 <0>        -0.9820
     14 N1          2.8882   -0.9253    7.4474 N.pl3     1 <0>        -1.0304
     15 N2          2.1474   -0.4482    6.3845 N.4       1 <0>        -0.1447
     16 C8          2.1541   -1.5277    5.3816 C.3       1 <0>        -0.0103
     17 C9          1.3905   -1.1037    4.1345 C.3       1 <0>        -0.0574
     18 H3          0.3717   -0.8552    4.4321 H         1 <0>         0.1087
     19 C10         1.3531   -2.1869    3.0922 C.2       1 <0>        -0.1844
     20 C11         1.1063   -1.8478    1.8207 C.2       1 <0>        -0.0373
     21 S2          1.0612   -3.0867    0.5686 S.3       1 <0>        -0.0643
     22 C12         1.3920   -4.6288    1.4649 C.3       1 <0>        -0.1571
     23 C13         4.5258   -0.4317    9.7231 C.ar      1 <0>        -0.7773
     24 C14         5.5459   -1.1613    9.1433 C.ar      1 <0>        -0.0600
     25 C15         6.6269   -1.5658    9.9043 C.ar      1 <0>        -0.1402
     26 C16         6.6904   -1.2412   11.2470 C.ar      1 <0>        -0.0471
     27 C17         5.6734   -0.5117   11.8312 C.ar      1 <0>        -0.1558
     28 C18         4.5899   -0.1000   11.0684 C.ar      1 <0>         0.2058
     29 O3          3.5907    0.6227   11.6396 O.3       1 <0>        -0.4902
     30 H4          1.0001    2.1870    0.0043 H         1 <0>         0.0877
     31 H5         -0.5497    2.1708   -0.8711 H         1 <0>         0.1182
     32 H6         -0.5327    2.1613    0.9088 H         1 <0>         0.0875
     33 H7          1.1807    1.5778    2.0456 H         1 <0>         0.1401
     34 H8          2.5132    2.1359    4.1955 H         1 <0>         0.1347
     35 H9          0.9845    1.4780    4.8270 H         1 <0>         0.1082
     36 H10         3.0713    2.8249    6.4515 H         1 <0>         0.1603
     37 H11         1.6107    2.0800    7.1455 H         1 <0>         0.1106
     38 H12         3.2581   -1.8220    7.4531 H         1 <0>         0.4567
     39 H13         3.1816   -1.7439    5.0888 H         1 <0>         0.1411
     40 H14         1.7045   -2.4233    5.8103 H         1 <0>         0.1511
     41 H15         1.5183   -3.2187    3.3650 H         1 <0>         0.1387
     42 H16         1.3844   -5.4645    0.7652 H         1 <0>         0.1190
     43 H17         2.3678   -4.5669    1.9465 H         1 <0>         0.0858
     44 H18         0.6224   -4.7814    2.2216 H         1 <0>         0.0880
     45 H19         5.4986   -1.4160    8.0949 H         1 <0>         0.1243
     46 H20         7.4229   -2.1366    9.4494 H         1 <0>         0.1387
     47 H21         7.5357   -1.5587   11.8395 H         1 <0>         0.1432
     48 H22         5.7234   -0.2585   12.8799 H         1 <0>         0.1474
     49 H23         2.8777    0.0842   12.0095 H         1 <0>         0.4170
     50 H24         1.1994   -0.2604    6.6744 H         1 <0>         0.4359
@<TRIPOS>BOND
     1    1    2 1
     2    1   30 1
     3    1   31 1
     4    1   32 1
     5    2    3 1
     6    3   20 1
     7    3    4 2
     8    4    5 1
     9    4   33 1
    10    5    6 1
    11    5   17 1
    12    5    7 1
    13    7    8 1
    14    7   34 1
    15    7   35 1
    16    8    9 1
    17    8   15 1
    18    8   10 1
    19   10   11 1
    20   10   36 1
    21   10   37 1
    22   11   12 1
    23   12   13 2
    24   12   14 1
    25   12   23 1
    26   14   15 1
    27   14   38 1
    28   15   16 1
    29   15   50 1
    30   16   17 1
    31   16   39 1
    32   16   40 1
    33   17   18 1
    34   17   19 1
    35   19   20 2
    36   19   41 1
    37   20   21 1
    38   21   22 1
    39   22   42 1
    40   22   43 1
    41   22   44 1
    42   23   28 ar
    43   23   24 ar
    44   24   25 ar
    45   24   45 1
    46   25   26 ar
    47   25   46 1
    48   26   27 ar
    49   26   47 1
    50   27   28 ar
    51   27   48 1
    52   28   29 1
    53   29   49 1
@<TRIPOS>MOLECULE
ZINC39659761
   65    68     0     0     0
SMALL
USER_CHARGES

@<TRIPOS>ATOM
      1 C1         -0.1815    1.2259   -0.3039 C.ar      1 <0>        -0.1689
      2 C2          1.0211    1.8820   -0.4507 C.ar      1 <0>        -0.0318
      3 C3          2.1563    1.4127    0.2145 C.ar      1 <0>        -0.1919
      4 C4          2.0643    0.2771    1.0272 C.ar      1 <0>         0.1910
      5 C5          0.8525   -0.3716    1.1661 C.ar      1 <0>        -0.1989
      6 C6         -0.2683    0.1006    0.5026 C.ar      1 <0>         0.1683
      7 F1         -1.4510   -0.5373    0.6421 F         1 <0>        -0.1175
      8 F2          3.1574   -0.1836    1.6738 F         1 <0>        -0.1097
      9 C7          3.4471    2.1111    0.0606 C.2       1 <0>         0.5930
     10 O1          4.4854    1.4784    0.0686 O.2       1 <0>        -0.5114
     11 N1          3.4751    3.4502   -0.0889 N.am      1 <0>        -0.6189
     12 C8          2.3367    4.3961   -0.0174 C.3       1 <0>         0.1037
     13 C9          2.8986    5.6279    0.7270 C.3       1 <0>        -0.1152
     14 H1          2.6739    5.5631    1.7917 H         1 <0>         0.1116
     15 C10         4.4178    5.5667    0.4958 C.3       1 <0>        -0.0710
     16 C11         4.6530    4.3104   -0.3554 C.3       1 <0>         0.1094
     17 C12         4.8889    6.8095   -0.2532 C.3       1 <0>        -0.1478
     18 C13         6.4100    6.7534   -0.4200 C.3       1 <0>        -0.0083
     19 N2          7.0468    6.6830    0.9007 N.4       1 <0>        -0.5045
     20 C14         6.6608    5.4386    1.5769 C.3       1 <0>        -0.0113
     21 C15         5.1502    5.4393    1.8282 C.3       1 <0>        -0.1346
     22 C16         2.3280    6.8966    0.1476 C.2       1 <0>         0.5202
     23 O2          2.0349    6.9481   -1.0281 O.2       1 <0>        -0.5205
     24 N3          2.1433    7.9741    0.9360 N.am      1 <0>        -0.7230
     25 C17         1.5885    9.2074    0.3727 C.3       1 <0>         0.1171
     26 C18         2.7150   10.0370   -0.2470 C.3       1 <0>        -0.1223
     27 C19         2.1165   11.1025   -1.1673 C.3       1 <0>        -0.1274
     28 C20         1.0103   10.4781   -2.0198 C.3       1 <0>        -0.1323
     29 C21        -0.3410   11.0721   -1.6171 C.3       1 <0>        -0.1238
     30 C22        -0.7931   10.4561   -0.2915 C.3       1 <0>        -0.1309
     31 C23         0.0038   11.0770    0.8575 C.3       1 <0>        -0.1271
     32 C24         0.9113   10.0152    1.4818 C.3       1 <0>        -0.1266
     33 H2         -1.0601    1.5913   -0.8146 H         1 <0>         0.1549
     34 H3          1.0862    2.7576   -1.0795 H         1 <0>         0.1505
     35 H4          0.7789   -1.2484    1.7924 H         1 <0>         0.1613
     36 H5          2.0101    4.6741   -1.0195 H         1 <0>         0.1038
     37 H6          1.5120    3.9565    0.5437 H         1 <0>         0.0972
     38 H7          5.5691    3.8078   -0.0454 H         1 <0>         0.0916
     39 H8          4.7010    4.5730   -1.4122 H         1 <0>         0.0877
     40 H9          4.4162    6.8438   -1.2348 H         1 <0>         0.1280
     41 H10         4.6175    7.7004    0.3132 H         1 <0>         0.0977
     42 H11         6.6793    5.8709   -1.0003 H         1 <0>         0.1336
     43 H12         6.7515    7.6481   -0.9405 H         1 <0>         0.1393
     44 H13         8.0495    6.7076    0.7909 H         1 <0>         0.4345
     45 H14         6.9241    4.5874    0.9490 H         1 <0>         0.1346
     46 H15         7.1872    5.3641    2.5285 H         1 <0>         0.1402
     47 H16         4.8884    6.2809    2.4694 H         1 <0>         0.0965
     48 H17         4.8618    4.5073    2.3143 H         1 <0>         0.1182
     49 H18         2.3777    7.9329    1.8763 H         1 <0>         0.3982
     50 H19         0.8557    8.9588   -0.3950 H         1 <0>         0.1210
     51 H20         3.2879   10.5204    0.5443 H         1 <0>         0.0611
     52 H21         3.3710    9.3852   -0.8242 H         1 <0>         0.0600
     53 H22         1.6993   11.9097   -0.5652 H         1 <0>         0.0771
     54 H23         2.8957   11.5000   -1.8177 H         1 <0>         0.0624
     55 H24         1.2004   10.6883   -3.0723 H         1 <0>         0.0615
     56 H25         0.9947    9.3997   -1.8617 H         1 <0>         0.0770
     57 H26        -0.2436   12.1516   -1.5018 H         1 <0>         0.0664
     58 H27        -1.0786   10.8540   -2.3895 H         1 <0>         0.0636
     59 H28        -1.8553   10.6510   -0.1438 H         1 <0>         0.0645
     60 H29        -0.6207    9.3801   -0.3133 H         1 <0>         0.0685
     61 H30         0.6128   11.8965    0.4760 H         1 <0>         0.0779
     62 H31        -0.6840   11.4567    1.6130 H         1 <0>         0.0680
     63 H32         0.3151    9.3484    2.1047 H         1 <0>         0.0693
     64 H33         1.6715   10.5010    2.0935 H         1 <0>         0.0679
     65 H34         6.7526    7.4718    1.4569 H         1 <0>         0.4274
@<TRIPOS>BOND
     1    1    6 ar
     2    1    2 ar
     3    1   33 1
     4    2    3 ar
     5    2   34 1
     6    3    4 ar
     7    3    9 1
     8    4    5 ar
     9    4    8 1
    10    5    6 ar
    11    5   35 1
    12    6    7 1
    13    9   10 2
    14    9   11 am
    15   11   16 1
    16   11   12 1
    17   12   13 1
    18   12   36 1
    19   12   37 1
    20   13   14 1
    21   13   15 1
    22   13   22 1
    23   15   21 1
    24   15   16 1
    25   15   17 1
    26   16   38 1
    27   16   39 1
    28   17   18 1
    29   17   40 1
    30   17   41 1
    31   18   19 1
    32   18   42 1
    33   18   43 1
    34   19   20 1
    35   19   44 1
    36   19   65 1
    37   20   21 1
    38   20   45 1
    39   20   46 1
    40   21   47 1
    41   21   48 1
    42   22   23 2
    43   22   24 am
    44   24   25 1
    45   24   49 1
    46   25   32 1
    47   25   26 1
    48   25   50 1
    49   26   27 1
    50   26   51 1
    51   26   52 1
    52   27   28 1
    53   27   53 1
    54   27   54 1
    55   28   29 1
    56   28   55 1
    57   28   56 1
    58   29   30 1
    59   29   57 1
    60   29   58 1
    61   30   31 1
    62   30   59 1
    63   30   60 1
    64   31   32 1
    65   31   61 1
    66   31   62 1
    67   32   63 1
    68   32   64 1
@<TRIPOS>MOLECULE
ZINC50362416
   41    43     0     0     0
SMALL
USER_CHARGES

@<TRIPOS>ATOM
      1 C1         -0.4372    1.4436    0.6047 C.2       1 <0>        -0.1361
      2 C2          0.8107    2.0731    0.8216 C.2       1 <0>        -0.1441
      3 C3          1.7574    1.1306    0.6509 C.2       1 <0>         0.0234
      4 O1          1.1512   -0.0284    0.3440 O.3       1 <0>        -0.1417
      5 C4         -0.1792    0.1558    0.3147 C.2       1 <0>        -0.0522
      6 C5         -1.2085   -0.9016    0.0088 C.3       1 <0>         0.1397
      7 H1         -2.1998   -0.5293    0.2673 H         1 <0>         0.1461
      8 C6         -1.1639   -1.2403   -1.4826 C.3       1 <0>        -0.0062
      9 N1         -2.0815   -2.3535   -1.7596 N.4       1 <0>        -0.6299
     10 N2         -0.9187   -2.1088    0.7939 N.3       1 <0>        -0.5355
     11 C7          0.3698   -2.6982    0.3984 C.3       1 <0>        -0.0112
     12 C8          0.6141   -3.9772    1.2028 C.3       1 <0>         0.0647
     13 O2          0.5562   -3.6802    2.6015 O.3       1 <0>        -0.3697
     14 C9         -0.6895   -3.1127    3.0110 C.3       1 <0>         0.1014
     15 H2         -1.4952   -3.8163    2.8015 H         1 <0>         0.0714
     16 C10        -0.9297   -1.8159    2.2331 C.3       1 <0>         0.0559
     17 H3         -0.1390   -1.1021    2.4643 H         1 <0>         0.0669
     18 C11        -2.2805   -1.2266    2.6399 C.3       1 <0>        -0.1130
     19 C12        -2.2657   -0.9203    4.1397 C.3       1 <0>        -0.1231
     20 C13        -2.0074   -2.2068    4.9255 C.3       1 <0>        -0.1192
     21 C14        -0.6606   -2.8028    4.5079 C.3       1 <0>        -0.1162
     22 Br1         3.6228    1.3941    0.8145 Br        1 <0>         0.0971
     23 Br2         1.0951    3.8891    1.2655 Br        1 <0>         0.0316
     24 H4         -1.4108    1.9071    0.6650 H         1 <0>         0.1719
     25 H5         -1.4654   -0.3680   -2.0625 H         1 <0>         0.1508
     26 H6         -0.1497   -1.5279   -1.7597 H         1 <0>         0.1395
     27 H7         -1.8024   -3.1610   -1.2228 H         1 <0>         0.4406
     28 H8         -3.0203   -2.0872   -1.5031 H         1 <0>         0.4383
     29 H9          0.3493   -2.9361   -0.6651 H         1 <0>         0.0823
     30 H10         1.1710   -1.9861    0.5961 H         1 <0>         0.0791
     31 H11        -0.1508   -4.7134    0.9557 H         1 <0>         0.0622
     32 H12         1.5973   -4.3786    0.9571 H         1 <0>         0.1083
     33 H13        -2.4595   -0.3073    2.0823 H         1 <0>         0.0652
     34 H14        -3.0713   -1.9448    2.4228 H         1 <0>         0.0772
     35 H15        -1.4771   -0.1993    4.3549 H         1 <0>         0.0664
     36 H16        -3.2285   -0.5025    4.4341 H         1 <0>         0.0759
     37 H17        -1.9898   -1.9830    5.9922 H         1 <0>         0.0780
     38 H18        -2.8021   -2.9237    4.7191 H         1 <0>         0.0687
     39 H19        -0.4813   -3.7215    5.0665 H         1 <0>         0.0818
     40 H20         0.1354   -2.0880    4.7164 H         1 <0>         0.0730
     41 H21        -2.0521   -2.5768   -2.7431 H         1 <0>         0.4408
@<TRIPOS>BOND
     1    1    5 2
     2    1    2 1
     3    1   24 1
     4    2    3 2
     5    2   23 1
     6    3    4 1
     7    3   22 1
     8    4    5 1
     9    5    6 1
    10    6    7 1
    11    6    8 1
    12    6   10 1
    13    8    9 1
    14    8   25 1
    15    8   26 1
    16    9   27 1
    17    9   28 1
    18    9   41 1
    19   10   16 1
    20   10   11 1
    21   11   12 1
    22   11   29 1
    23   11   30 1
    24   12   13 1
    25   12   31 1
    26   12   32 1
    27   13   14 1
    28   14   15 1
    29   14   21 1
    30   14   16 1
    31   16   17 1
    32   16   18 1
    33   18   19 1
    34   18   33 1
    35   18   34 1
    36   19   20 1
    37   19   35 1
    38   19   36 1
    39   20   21 1
    40   20   37 1
    41   20   38 1
    42   21   39 1
    43   21   40 1
@<TRIPOS>MOLECULE
ZINC66390264
   61    63     0     0     0
SMALL
USER_CHARGES

@<TRIPOS>ATOM
      1 C1         -0.3162    1.5915    0.2935 C.3       1 <0>        -0.1863
      2 C2         -0.3820    0.0638    0.3443 C.3       1 <0>         0.0025
      3 H1          0.1615   -0.2944    1.2186 H         1 <0>         0.1713
      4 C3          0.2409   -0.5076   -0.9033 C.2       1 <0>         0.5003
      5 O1         -0.4189   -1.2023   -1.6471 O.2       1 <0>        -0.5051
      6 N1          1.5311   -0.2467   -1.1926 N.am      1 <0>        -0.6364
      7 C4          2.1405   -0.8637   -2.2908 C.ar      1 <0>         0.1208
      8 C5          1.6523   -2.0730   -2.7690 C.ar      1 <0>        -0.1212
      9 C6          2.2559   -2.6794   -3.8529 C.ar      1 <0>        -0.1033
     10 C7          3.3457   -2.0841   -4.4619 C.ar      1 <0>        -0.1144
     11 C8          3.8343   -0.8807   -3.9880 C.ar      1 <0>        -0.0938
     12 C9          3.2308   -0.2657   -2.9083 C.ar      1 <0>        -0.0906
     13 C10         3.7595    1.0496   -2.3969 C.3       1 <0>        -0.0520
     14 C11         5.2493    0.9109   -2.0774 C.3       1 <0>        -0.1505
     15 C12         3.5653    2.1274   -3.4654 C.3       1 <0>        -0.1468
     16 N2         -1.7849   -0.3633    0.4310 N.4       1 <0>        -0.5007
     17 C13        -2.3578    0.0929    1.7044 C.3       1 <0>        -0.0187
     18 C14        -3.8456   -0.2612    1.7502 C.3       1 <0>        -0.0304
     19 C15        -4.5453    0.3043    0.5105 C.3       1 <0>        -0.1679
     20 C16        -4.4425    1.8317    0.5282 C.3       1 <0>         0.0532
     21 O2         -5.0226    2.3328    1.7343 O.3       1 <0>        -0.3625
     22 C17        -4.3791    1.8752    2.9253 C.3       1 <0>         0.0513
     23 C18        -4.4793    0.3496    3.0038 C.3       1 <0>        -0.1421
     24 C19        -4.0064   -1.7592    1.7828 C.ar      1 <0>        -0.0697
     25 C20        -2.8958   -2.5706    1.9244 C.ar      1 <0>        -0.1736
     26 C21        -3.0418   -3.9448    1.9544 C.ar      1 <0>        -0.0653
     27 C22        -4.2984   -4.5094    1.8424 C.ar      1 <0>        -0.1440
     28 C23        -5.4111   -3.6980    1.7006 C.ar      1 <0>         0.1285
     29 C24        -5.2643   -2.3212    1.6767 C.ar      1 <0>        -0.1387
     30 F1         -6.6398   -4.2489    1.5906 F         1 <0>        -0.1245
     31 H2          0.7247    1.9084    0.2292 H         1 <0>         0.1144
     32 H3         -0.8597    1.9497   -0.5808 H         1 <0>         0.0943
     33 H4         -0.7667    2.0048    1.1959 H         1 <0>         0.1006
     34 H5          2.0373    0.3688   -0.6396 H         1 <0>         0.4174
     35 H6          0.8018   -2.5386   -2.2934 H         1 <0>         0.1425
     36 H7          1.8769   -3.6196   -4.2252 H         1 <0>         0.1310
     37 H8          3.8163   -2.5606   -5.3092 H         1 <0>         0.1309
     38 H9          4.6857   -0.4186   -4.4655 H         1 <0>         0.1327
     39 H10         3.2189    1.3320   -1.4935 H         1 <0>         0.0635
     40 H11         5.6317    1.8622   -1.7075 H         1 <0>         0.0644
     41 H12         5.3877    0.1431   -1.3162 H         1 <0>         0.0575
     42 H13         5.7900    0.6285   -2.9807 H         1 <0>         0.0644
     43 H14         2.5040    2.2263   -3.6930 H         1 <0>         0.0545
     44 H15         3.9477    3.0788   -3.0955 H         1 <0>         0.0642
     45 H16         4.1060    1.8450   -4.3688 H         1 <0>         0.0640
     46 H17        -2.3061    0.0366   -0.3348 H         1 <0>         0.4306
     47 H18        -1.8423   -0.3963    2.5308 H         1 <0>         0.1475
     48 H19        -2.2386    1.1730    1.7902 H         1 <0>         0.1461
     49 H20        -4.0642   -0.0827   -0.3877 H         1 <0>         0.0741
     50 H21        -5.5948    0.0098    0.5184 H         1 <0>         0.1102
     51 H22        -3.3942    2.1260    0.4794 H         1 <0>         0.0449
     52 H23        -4.9757    2.2419   -0.3294 H         1 <0>         0.1133
     53 H24        -3.3299    2.1701    2.9078 H         1 <0>         0.0528
     54 H25        -4.8665    2.3168    3.7945 H         1 <0>         0.1135
     55 H26        -5.5274    0.0559    3.0621 H         1 <0>         0.1000
     56 H27        -3.9510   -0.0051    3.8888 H         1 <0>         0.0937
     57 H28        -1.9135   -2.1303    2.0113 H         1 <0>         0.1176
     58 H29        -2.1736   -4.5775    2.0651 H         1 <0>         0.1436
     59 H30        -4.4122   -5.5832    1.8652 H         1 <0>         0.1476
     60 H31        -6.1320   -1.6871    1.5706 H         1 <0>         0.1451
     61 H32        -1.8337   -1.3699    0.3817 H         1 <0>         0.4339
@<TRIPOS>BOND
     1    1    2 1
     2    1   31 1
     3    1   32 1
     4    1   33 1
     5    2    3 1
     6    2    4 1
     7    2   16 1
     8    4    5 2
     9    4    6 am
    10    6    7 1
    11    6   34 1
    12    7   12 ar
    13    7    8 ar
    14    8    9 ar
    15    8   35 1
    16    9   10 ar
    17    9   36 1
    18   10   11 ar
    19   10   37 1
    20   11   12 ar
    21   11   38 1
    22   12   13 1
    23   13   14 1
    24   13   15 1
    25   13   39 1
    26   14   40 1
    27   14   41 1
    28   14   42 1
    29   15   43 1
    30   15   44 1
    31   15   45 1
    32   16   17 1
    33   16   46 1
    34   16   61 1
    35   17   18 1
    36   17   47 1
    37   17   48 1
    38   18   23 1
    39   18   19 1
    40   18   24 1
    41   19   20 1
    42   19   49 1
    43   19   50 1
    44   20   21 1
    45   20   51 1
    46   20   52 1
    47   21   22 1
    48   22   23 1
    49   22   53 1
    50   22   54 1
    51   23   55 1
    52   23   56 1
    53   24   29 ar
    54   24   25 ar
    55   25   26 ar
    56   25   57 1
    57   26   27 ar
    58   26   58 1
    59   27   28 ar
    60   27   59 1
    61   28   29 ar
    62   28   30 1
    63   29   60 1
@<TRIPOS>MOLECULE
ZINC01980613
   56    59     0     0     0
SMALL
USER_CHARGES
N-(4-fluorophenyl)-2-(oxo-tert-butyl-BLAHyl)-propanamide
@<TRIPOS>ATOM
      1 C1          1.7740   -4.8567    0.9826 C.3       1 <0>        -0.1641
      2 C2          2.4215   -4.2387   -0.2582 C.3       1 <0>         0.0980
      3 H1          1.8636   -4.5369   -1.1459 H         1 <0>         0.1506
      4 C3          2.4073   -2.7367   -0.1370 C.2       1 <0>         0.5069
      5 O1          3.4504   -2.1178   -0.1442 O.2       1 <0>        -0.5028
      6 N1          1.2355   -2.0810   -0.0205 N.am      1 <0>        -0.6617
      7 C4          1.2138   -0.6809   -0.0189 C.ar      1 <0>         0.1307
      8 C5          2.1372    0.0296   -0.7742 C.ar      1 <0>        -0.0899
      9 C6          2.1138    1.4105   -0.7716 C.ar      1 <0>        -0.1322
     10 C7          1.1702    2.0865   -0.0165 C.ar      1 <0>         0.0892
     11 C8          0.2484    1.3798    0.7375 C.ar      1 <0>        -0.1329
     12 C9          0.2685   -0.0012    0.7376 C.ar      1 <0>        -0.1110
     13 F1          1.1489    3.4373   -0.0153 F         1 <0>        -0.1369
     14 N2          3.8052   -4.7065   -0.3712 N.am      1 <0>        -0.5163
     15 C10         4.6821   -4.4369    0.6299 C.2       1 <0>         0.4064
     16 N3          5.9225   -4.8420    0.5694 N.2       1 <0>        -0.4871
     17 C11         6.3685   -5.5225   -0.4829 C.2       1 <0>         0.1039
     18 C12         5.5387   -5.8432   -1.5688 C.2       1 <0>        -0.2429
     19 C13         4.1826   -5.3899   -1.4678 C.2       1 <0>         0.5576
     20 O2          3.3845   -5.6192   -2.3602 O.2       1 <0>        -0.5214
     21 C14         6.1672   -6.5943   -2.6548 C.2       1 <0>        -0.0509
     22 C15         7.4727   -6.9046   -2.5088 C.2       1 <0>        -0.1661
     23 S1          7.9340   -6.2236   -0.9387 S.3       1 <0>         0.1473
     24 C16         8.3392   -7.6602   -3.4696 C.3       1 <0>        -0.0360
     25 C17         7.6230   -7.7156   -4.8267 C.3       1 <0>        -0.0701
     26 H2          7.6477   -6.7309   -5.2936 H         1 <0>         0.0773
     27 C18         6.1703   -8.1432   -4.5979 C.3       1 <0>        -0.1203
     28 C19         5.4005   -7.0188   -3.9043 C.3       1 <0>        -0.0577
     29 C20         8.3203   -8.7313   -5.7339 C.3       1 <0>        -0.0622
     30 C21         8.2770  -10.1137   -5.0795 C.3       1 <0>        -0.1485
     31 C22         7.6044   -8.7841   -7.0851 C.3       1 <0>        -0.1450
     32 C23         9.7765   -8.3120   -5.9443 C.3       1 <0>        -0.1460
     33 H3          1.7842   -5.9431    0.8949 H         1 <0>         0.0858
     34 H4          2.3319   -4.5585    1.8703 H         1 <0>         0.0755
     35 H5          0.7445   -4.5087    1.0667 H         1 <0>         0.0894
     36 H6          0.4073   -2.5791    0.0622 H         1 <0>         0.4164
     37 H7          2.8730   -0.4973   -1.3636 H         1 <0>         0.1427
     38 H8          2.8347    1.9635   -1.3554 H         1 <0>         0.1409
     39 H9         -0.4867    1.9089    1.3258 H         1 <0>         0.1426
     40 H10        -0.4508   -0.5520    1.3255 H         1 <0>         0.1390
     41 H11         4.3469   -3.8817    1.4935 H         1 <0>         0.2092
     42 H12         9.2962   -7.1503   -3.5801 H         1 <0>         0.0848
     43 H13         8.5030   -8.6720   -3.0987 H         1 <0>         0.0911
     44 H14         5.7025   -8.3642   -5.5573 H         1 <0>         0.0760
     45 H15         6.1497   -9.0347   -3.9711 H         1 <0>         0.0680
     46 H16         5.3061   -6.1694   -4.5809 H         1 <0>         0.0771
     47 H17         4.4089   -7.3741   -3.6238 H         1 <0>         0.0851
     48 H18         7.2395  -10.4124   -4.9296 H         1 <0>         0.0587
     49 H19         8.7737  -10.8373   -5.7258 H         1 <0>         0.0552
     50 H20         8.7870  -10.0760   -4.1169 H         1 <0>         0.0580
     51 H21         7.6352   -7.7993   -7.5513 H         1 <0>         0.0551
     52 H22         8.1011   -9.5078   -7.7314 H         1 <0>         0.0557
     53 H23         6.5669   -9.0829   -6.9352 H         1 <0>         0.0594
     54 H24        10.2865   -8.2744   -4.9817 H         1 <0>         0.0572
     55 H25        10.2732   -9.0357   -6.5907 H         1 <0>         0.0560
     56 H26         9.8073   -7.3272   -6.4105 H         1 <0>         0.0555
@<TRIPOS>BOND
     1    1    2 1
     2    1   33 1
     3    1   34 1
     4    1   35 1
     5    2    3 1
     6    2    4 1
     7    2   14 1
     8    4    5 2
     9    4    6 am
    10    6    7 1
    11    6   36 1
    12    7   12 ar
    13    7    8 ar
    14    8    9 ar
    15    8   37 1
    16    9   10 ar
    17    9   38 1
    18   10   11 ar
    19   10   13 1
    20   11   12 ar
    21   11   39 1
    22   12   40 1
    23   14   19 am
    24   14   15 1
    25   15   16 2
    26   15   41 1
    27   16   17 1
    28   17   23 1
    29   17   18 2
    30   18   19 1
    31   18   21 1
    32   19   20 2
    33   21   28 1
    34   21   22 2
    35   22   23 1
    36   22   24 1
    37   24   25 1
    38   24   42 1
    39   24   43 1
    40   25   26 1
    41   25   27 1
    42   25   29 1
    43   27   28 1
    44   27   44 1
    45   27   45 1
    46   28   46 1
    47   28   47 1
    48   29   30 1
    49   29   31 1
    50   29   32 1
    51   30   48 1
    52   30   49 1
    53   30   50 1
    54   31   51 1
    55   31   52 1
    56   31   53 1
    57   32   54 1
    58   32   55 1
    59   32   56 1
@<TRIPOS>MOLECULE
ZINC03165517
   59    62     0     0     0
SMALL
USER_CHARGES
4-(2,5-dimethylpyrrol-1-yl)-N-[[(2E)-2-(1,3,3-trimethylindolin-2-ylidene)ethylidene]amino]benzamide
@<TRIPOS>ATOM
      1 C1         -5.7495    3.2105   -2.2617 C.3       1 <0>        -0.0860
      2 C2         -5.8676    3.9577   -0.9583 C.2       1 <0>         0.0198
      3 C3         -6.9072    4.7282   -0.5801 C.2       1 <0>        -0.1884
      4 C4         -6.6105    5.2418    0.6989 C.2       1 <0>        -0.1881
      5 C5         -5.4031    4.7615    1.0580 C.2       1 <0>         0.0187
      6 N1         -4.9412    3.9683    0.0460 N.pl3     1 <0>        -0.4100
      7 C6         -3.7209    3.2857    0.0370 C.ar      1 <0>         0.1497
      8 C7         -3.7040    1.8952    0.0299 C.ar      1 <0>        -0.1155
      9 C8         -2.5041    1.2195    0.0206 C.ar      1 <0>        -0.0408
     10 C9         -1.3026    1.9329    0.0187 C.ar      1 <0>        -0.1250
     11 C10        -1.3235    3.3301    0.0322 C.ar      1 <0>        -0.0740
     12 C11        -2.5272    3.9990    0.0357 C.ar      1 <0>        -0.1164
     13 C12        -0.0144    1.2124    0.0087 C.2       1 <0>         0.5769
     14 O1          0.0021   -0.0041    0.0020 O.2       1 <0>        -0.4961
     15 N2          1.1435    1.9021    0.0014 N.am      1 <0>        -0.5811
     16 N3          2.3661    1.2181   -0.0140 N.2       1 <0>        -0.2470
     17 C13         3.4850    1.8846   -0.0211 C.2       1 <0>         0.1292
     18 C14         4.7604    1.1711   -0.0371 C.2       1 <0>        -0.2128
     19 C15         5.9154    1.8591   -0.0444 C.2       1 <0>         0.1956
     20 C16         6.0704    3.3649   -0.0378 C.3       1 <0>         0.0013
     21 C17         7.5656    3.5855   -0.0509 C.ar      1 <0>        -0.1432
     22 C18         8.3365    4.7274   -0.0526 C.ar      1 <0>        -0.0598
     23 C19         9.7166    4.6297   -0.0668 C.ar      1 <0>        -0.1507
     24 C20        10.3185    3.3844   -0.0793 C.ar      1 <0>        -0.0793
     25 C21         9.5502    2.2393   -0.0778 C.ar      1 <0>        -0.1522
     26 C22         8.1582    2.3295   -0.0633 C.ar      1 <0>         0.1594
     27 N4          7.1865    1.3308   -0.0534 N.pl3     1 <0>        -0.5414
     28 C23         7.4812   -0.1042   -0.0557 C.3       1 <0>         0.0830
     29 C24         5.4286    3.9745   -1.2858 C.3       1 <0>        -0.1349
     30 C25         5.4526    3.9610    1.2287 C.3       1 <0>        -0.1348
     31 C26        -4.6864    5.0502    2.3519 C.3       1 <0>        -0.0853
     32 H1         -6.1749    2.2134   -2.1487 H         1 <0>         0.0718
     33 H2         -6.2895    3.7499   -3.0399 H         1 <0>         0.0818
     34 H3         -4.6986    3.1279   -2.5392 H         1 <0>         0.0620
     35 H4         -7.8018    4.9205   -1.1539 H         1 <0>         0.1397
     36 H5         -7.2360    5.8998    1.2839 H         1 <0>         0.1396
     37 H6         -4.6331    1.3446    0.0313 H         1 <0>         0.1396
     38 H7         -2.4918    0.1396    0.0150 H         1 <0>         0.1493
     39 H8         -0.3967    3.8847    0.0357 H         1 <0>         0.1334
     40 H9         -2.5442    5.0788    0.0416 H         1 <0>         0.1377
     41 H10         1.1303    2.8719    0.0067 H         1 <0>         0.3811
     42 H11         3.4703    2.9645   -0.0152 H         1 <0>         0.1154
     43 H12         4.7751    0.0912   -0.0430 H         1 <0>         0.1345
     44 H13         7.8637    5.6984   -0.0428 H         1 <0>         0.1254
     45 H14        10.3225    5.5237   -0.0682 H         1 <0>         0.1281
     46 H15        11.3957    3.3085   -0.0898 H         1 <0>         0.1292
     47 H16        10.0272    1.2704   -0.0876 H         1 <0>         0.1226
     48 H17         7.5471   -0.4600   -1.0839 H         1 <0>         0.0657
     49 H18         8.4296   -0.2812    0.4515 H         1 <0>         0.0785
     50 H19         6.6861   -0.6392    0.4636 H         1 <0>         0.0831
     51 H20         4.3621    3.7495   -1.2926 H         1 <0>         0.0644
     52 H21         5.5720    5.0550   -1.2773 H         1 <0>         0.0701
     53 H22         5.8945    3.5532   -2.1766 H         1 <0>         0.0636
     54 H23         5.9354    3.5302    2.1058 H         1 <0>         0.0637
     55 H24         5.5959    5.0415    1.2290 H         1 <0>         0.0701
     56 H25         4.3864    3.7359    1.2535 H         1 <0>         0.0644
     57 H26        -4.0612    5.9349    2.2314 H         1 <0>         0.0707
     58 H27        -5.4177    5.2267    3.1407 H         1 <0>         0.0818
     59 H28        -4.0620    4.1978    2.6194 H         1 <0>         0.0620
@<TRIPOS>BOND
     1    1    2 1
     2    1   32 1
     3    1   33 1
     4    1   34 1
     5    2    6 1
     6    2    3 2
     7    3    4 1
     8    3   35 1
     9    4    5 2
    10    4   36 1
    11    5    6 1
    12    5   31 1
    13    6    7 1
    14    7   12 ar
    15    7    8 ar
    16    8    9 ar
    17    8   37 1
    18    9   10 ar
    19    9   38 1
    20   10   11 ar
    21   10   13 1
    22   11   12 ar
    23   11   39 1
    24   12   40 1
    25   13   14 2
    26   13   15 am
    27   15   16 1
    28   15   41 1
    29   16   17 2
    30   17   18 1
    31   17   42 1
    32   18   19 2
    33   18   43 1
    34   19   27 1
    35   19   20 1
    36   20   21 1
    37   20   29 1
    38   20   30 1
    39   21   26 ar
    40   21   22 ar
    41   22   23 ar
    42   22   44 1
    43   23   24 ar
    44   23   45 1
    45   24   25 ar
    46   24   46 1
    47   25   26 ar
    48   25   47 1
    49   26   27 1
    50   27   28 1
    51   28   48 1
    52   28   49 1
    53   28   50 1
    54   29   51 1
    55   29   52 1
    56   29   53 1
    57   30   54 1
    58   30   55 1
    59   30   56 1
    60   31   57 1
    61   31   58 1
    62   31   59 1
@<TRIPOS>MOLECULE
ZINC23334762
   57    61     0     0     0
SMALL
USER_CHARGES
N-[3-[6-(2,3-dihydro-1,4-benzodioxin-6-yl)-2-pyridyl]phenyl]cyclohexanecarboxamide
@<TRIPOS>ATOM
      1 C1         -5.8087   -6.4219    0.0448 C.ar      1 <0>        -0.1018
      2 C2         -5.8662   -5.0521   -0.1196 C.ar      1 <0>        -0.1180
      3 C3         -4.6897   -4.3082   -0.1889 C.ar      1 <0>        -0.0327
      4 C4         -3.4575   -4.9508   -0.0972 C.ar      1 <0>        -0.0840
      5 C5         -3.4085   -6.3258    0.0732 C.ar      1 <0>         0.1473
      6 C6         -4.5867   -7.0596    0.1412 C.ar      1 <0>        -0.1370
      7 N1         -2.1728   -6.9754    0.1707 N.am      1 <0>        -0.6885
      8 C7         -1.1302   -6.3556    0.7584 C.2       1 <0>         0.5154
      9 O1         -1.2865   -5.2753    1.2871 O.2       1 <0>        -0.5130
     10 C8          0.2298   -7.0048    0.7585 C.3       1 <0>        -0.1021
     11 C9          0.1505   -8.3544    1.4749 C.3       1 <0>        -0.1112
     12 C10         1.5312   -9.0136    1.4751 C.3       1 <0>        -0.1187
     13 C11         2.5284   -8.1085    2.2013 C.3       1 <0>        -0.1241
     14 C12         2.6076   -6.7589    1.4849 C.3       1 <0>        -0.1203
     15 C13         1.2269   -6.0997    1.4847 C.3       1 <0>        -0.1012
     16 C14        -4.7496   -2.8365   -0.3661 C.ar      1 <0>         0.1782
     17 C15        -5.9845   -2.1905   -0.3579 C.ar      1 <0>        -0.1649
     18 C16        -6.0313   -0.8160   -0.5245 C.ar      1 <0>        -0.0671
     19 C17        -4.8414   -0.1276   -0.6945 C.ar      1 <0>        -0.1649
     20 C18        -3.6394   -0.8334   -0.6930 C.ar      1 <0>         0.1809
     21 N2         -3.6286   -2.1500   -0.5365 N.ar      1 <0>        -0.4669
     22 C19        -2.3604   -0.1053   -0.8743 C.ar      1 <0>        -0.0484
     23 C20        -2.3623    1.2782   -1.0457 C.ar      1 <0>        -0.0936
     24 C21        -1.1722    1.9528   -1.2195 C.ar      1 <0>        -0.1165
     25 C22         0.0312    1.2599   -1.2172 C.ar      1 <0>         0.0623
     26 C23         0.0391   -0.1205   -1.0444 C.ar      1 <0>         0.0459
     27 C24        -1.1538   -0.8024   -0.8742 C.ar      1 <0>        -0.0693
     28 O2          1.2098   -0.8152   -1.0391 O.3       1 <0>        -0.3043
     29 C25         2.3544   -0.1512   -1.5857 C.3       1 <0>         0.0169
     30 C26         2.4006    1.2730   -1.0155 C.3       1 <0>         0.0180
     31 O3          1.1939    1.9456   -1.3909 O.3       1 <0>        -0.3048
     32 H1         -6.7216   -6.9966    0.0979 H         1 <0>         0.1308
     33 H2         -6.8232   -4.5571   -0.1949 H         1 <0>         0.1280
     34 H3         -2.5430   -4.3792   -0.1544 H         1 <0>         0.1473
     35 H4         -4.5471   -8.1312    0.2694 H         1 <0>         0.1269
     36 H5         -2.0524   -7.9918   -0.2323 H         1 <0>         0.4328
     37 H6          0.5493   -7.1527   -0.2836 H         1 <0>         0.1002
     38 H7         -0.1823   -8.2000    2.5119 H         1 <0>         0.0698
     39 H8         -0.5664   -9.0051    0.9528 H         1 <0>         0.0663
     40 H9          1.4742   -9.9839    1.9902 H         1 <0>         0.0670
     41 H10         1.8640   -9.1680    0.4381 H         1 <0>         0.0654
     42 H11         2.1957   -7.9542    3.2384 H         1 <0>         0.0633
     43 H12         3.5211   -8.5824    2.2014 H         1 <0>         0.0640
     44 H13         3.3245   -6.1082    2.0070 H         1 <0>         0.0666
     45 H14         2.9404   -6.9132    0.4479 H         1 <0>         0.0630
     46 H15         1.2839   -5.1294    0.9696 H         1 <0>         0.0716
     47 H16         0.8941   -5.9453    2.5217 H         1 <0>         0.0706
     48 H17        -6.8951   -2.7553   -0.2227 H         1 <0>         0.1396
     49 H18        -6.9757   -0.2922   -0.5215 H         1 <0>         0.1408
     50 H19        -4.8449    0.9443   -0.8264 H         1 <0>         0.1401
     51 H20        -3.2959    1.8212   -1.0449 H         1 <0>         0.1379
     52 H21        -1.1757    3.0247   -1.3515 H         1 <0>         0.1402
     53 H22        -1.1492   -1.8742   -0.7418 H         1 <0>         0.1466
     54 H23         3.2654   -0.7003   -1.3054 H         1 <0>         0.1248
     55 H24         2.2697   -0.1169   -2.6819 H         1 <0>         0.0786
     56 H25         2.4818    1.2267    0.0805 H         1 <0>         0.0806
     57 H26         3.2722    1.8041   -1.4256 H         1 <0>         0.1256
@<TRIPOS>BOND
     1    1    6 ar
     2    1    2 ar
     3    1   32 1
     4    2    3 ar
     5    2   33 1
     6    3    4 ar
     7    3   16 1
     8    4    5 ar
     9    4   34 1
    10    5    6 ar
    11    5    7 1
    12    6   35 1
    13    7    8 am
    14    7   36 1
    15    8    9 2
    16    8   10 1
    17   10   15 1
    18   10   11 1
    19   10   37 1
    20   11   12 1
    21   11   38 1
    22   11   39 1
    23   12   13 1
    24   12   40 1
    25   12   41 1
    26   13   14 1
    27   13   42 1
    28   13   43 1
    29   14   15 1
    30   14   44 1
    31   14   45 1
    32   15   46 1
    33   15   47 1
    34   16   21 ar
    35   16   17 ar
    36   17   18 ar
    37   17   48 1
    38   18   19 ar
    39   18   49 1
    40   19   20 ar
    41   19   50 1
    42   20   21 ar
    43   20   22 1
    44   22   27 ar
    45   22   23 ar
    46   23   24 ar
    47   23   51 1
    48   24   25 ar
    49   24   52 1
    50   25   31 1
    51   25   26 ar
    52   26   27 ar
    53   26   28 1
    54   27   53 1
    55   28   29 1
    56   29   30 1
    57   29   54 1
    58   29   55 1
    59   30   31 1
    60   30   56 1
    61   30   57 1
@<TRIPOS>MOLECULE
ZINC39893505
   46    48     0     0     0
SMALL
USER_CHARGES

@<TRIPOS>ATOM
      1 C1         -3.1841    0.4181    1.9326 C.3       1 <0>        -0.1459
      2 C2         -2.2856   -0.6537    1.3713 C.2       1 <0>         0.1304
      3 C3         -1.6915   -0.4981    0.1271 C.2       1 <0>        -0.1877
      4 C4         -0.8223   -1.5538   -0.3956 C.2       1 <0>         0.5744
      5 O1         -0.3008   -1.4177   -1.4873 O.2       1 <0>        -0.4913
      6 N1         -0.5925   -2.6715    0.3152 N.am      1 <0>        -0.5423
      7 C5         -1.1505   -2.8589    1.5247 C.2       1 <0>         0.5812
      8 O2         -0.9237   -3.8817    2.1440 O.2       1 <0>        -0.5297
      9 C6         -2.0275   -1.8331    2.1044 C.2       1 <0>        -0.3310
     10 C7         -2.6006   -2.0229    3.3585 C.2       1 <0>         0.2985
     11 N2         -2.2110   -3.0566    4.1268 N.pl3     1 <0>        -0.5871
     12 C8         -2.7374   -3.2091    5.4124 C.ar      1 <0>         0.1492
     13 C9         -3.6672   -2.2978    5.8964 C.ar      1 <0>        -0.1419
     14 C10        -4.1857   -2.4515    7.1683 C.ar      1 <0>         0.0015
     15 C11        -3.7795   -3.5122    7.9594 C.ar      1 <0>        -0.1090
     16 C12        -2.8542   -4.4211    7.4807 C.ar      1 <0>        -0.0604
     17 C13        -2.3359   -4.2765    6.2075 C.ar      1 <0>        -0.0626
     18 Cl1        -1.1799   -5.4227    5.6046 Cl        1 <0>        -0.0332
     19 Cl2        -5.3474   -1.3128    7.7745 Cl        1 <0>        -0.0396
     20 C14         0.2834   -3.7068   -0.2391 C.3       1 <0>         0.1709
     21 H1          0.0642   -4.6619    0.2383 H         1 <0>         0.1151
     22 C15         0.0452   -3.8232   -1.7459 C.3       1 <0>        -0.1457
     23 C16         1.7219   -3.3367    0.0150 C.ar      1 <0>        -0.1016
     24 C17         2.1687   -2.0608   -0.2737 C.ar      1 <0>        -0.1093
     25 C18         3.4883   -1.7213   -0.0407 C.ar      1 <0>        -0.1216
     26 C19         4.3610   -2.6575    0.4816 C.ar      1 <0>        -0.1150
     27 C20         3.9140   -3.9332    0.7712 C.ar      1 <0>        -0.1226
     28 C21         2.5934   -4.2714    0.5422 C.ar      1 <0>        -0.1021
     29 C22        -1.9274    0.6872   -0.6410 C.1       1 <0>         0.2783
     30 N3         -2.1145    1.6275   -1.2504 N.1       1 <0>        -0.4157
     31 H2         -2.5885    1.1274    2.5073 H         1 <0>         0.1025
     32 H3         -3.6817    0.9400    1.1151 H         1 <0>         0.0894
     33 H4         -3.9321   -0.0378    2.5813 H         1 <0>         0.0839
     34 H5         -3.3581   -1.3406    3.7149 H         1 <0>         0.1822
     35 H6         -1.5647   -3.6959    3.7884 H         1 <0>         0.4400
     36 H7         -3.9843   -1.4698    5.2798 H         1 <0>         0.1511
     37 H8         -4.1860   -3.6299    8.9531 H         1 <0>         0.1531
     38 H9         -2.5392   -5.2474    8.1007 H         1 <0>         0.1566
     39 H10        -0.9690   -3.4993   -1.9796 H         1 <0>         0.0663
     40 H11         0.7592   -3.1932   -2.2763 H         1 <0>         0.0808
     41 H12         0.1757   -4.8602   -2.0553 H         1 <0>         0.0641
     42 H13         1.4869   -1.3293   -0.6818 H         1 <0>         0.1355
     43 H14         3.8375   -0.7247   -0.2669 H         1 <0>         0.1220
     44 H15         5.3921   -2.3925    0.6630 H         1 <0>         0.1218
     45 H16         4.5959   -4.6647    1.1789 H         1 <0>         0.1232
     46 H17         2.2432   -5.2669    0.7719 H         1 <0>         0.1231
@<TRIPOS>BOND
     1    1    2 1
     2    1   31 1
     3    1   32 1
     4    1   33 1
     5    2    9 1
     6    2    3 2
     7    3    4 1
     8    3   29 1
     9    4    5 2
    10    4    6 am
    11    6    7 am
    12    6   20 1
    13    7    8 2
    14    7    9 1
    15    9   10 2
    16   10   11 1
    17   10   34 1
    18   11   12 1
    19   11   35 1
    20   12   17 ar
    21   12   13 ar
    22   13   14 ar
    23   13   36 1
    24   14   15 ar
    25   14   19 1
    26   15   16 ar
    27   15   37 1
    28   16   17 ar
    29   16   38 1
    30   17   18 1
    31   20   21 1
    32   20   22 1
    33   20   23 1
    34   22   39 1
    35   22   40 1
    36   22   41 1
    37   23   28 ar
    38   23   24 ar
    39   24   25 ar
    40   24   42 1
    41   25   26 ar
    42   25   43 1
    43   26   27 ar
    44   26   44 1
    45   27   28 ar
    46   27   45 1
    47   28   46 1
    48   29   30 3
@<TRIPOS>MOLECULE
ZINC65025677
   46    49     0     0     0
SMALL
USER_CHARGES

@<TRIPOS>ATOM
      1 C1         -0.0169    1.3757    0.0332 C.ar      1 <0>        -0.1138
      2 C2          1.1665    2.0887    0.0238 C.ar      1 <0>        -0.0889
      3 C3          2.3886    1.4178   -0.0011 C.ar      1 <0>        -0.0199
      4 C4          2.4160    0.0271   -0.0165 C.ar      1 <0>        -0.0557
      5 C5          1.2196   -0.6879   -0.0070 C.ar      1 <0>        -0.1292
      6 C6          0.0019   -0.0042    0.0180 C.ar      1 <0>        -0.0904
      7 C7          1.2394   -2.1660   -0.0237 C.2       1 <0>         0.5624
      8 O1          2.3001   -2.7594   -0.0458 O.2       1 <0>        -0.5107
      9 N1          0.0815   -2.8556   -0.0144 N.am      1 <0>        -0.6701
     10 C8          0.0968   -4.2497   -0.1280 C.ar      1 <0>         0.1598
     11 C9         -0.9131   -4.9022   -0.8232 C.ar      1 <0>        -0.1386
     12 C10        -0.8955   -6.2787   -0.9338 C.ar      1 <0>        -0.0709
     13 C11         0.1270   -7.0077   -0.3528 C.ar      1 <0>        -0.1054
     14 C12         1.1344   -6.3603    0.3404 C.ar      1 <0>        -0.0708
     15 C13         1.1250   -4.9836    0.4493 C.ar      1 <0>        -0.1150
     16 Br1         0.1473   -8.8924   -0.5058 Br        1 <0>        -0.0488
     17 C14         3.6580    2.1862   -0.0117 C.ar      1 <0>        -0.2283
     18 C15         4.8915    1.5310   -0.0424 C.ar      1 <0>         0.2123
     19 N2          5.9999    2.2502   -0.0509 N.ar      1 <0>        -0.5635
     20 C16         5.9514    3.5745   -0.0307 C.ar      1 <0>         0.5837
     21 N3          4.8009    4.2317   -0.0009 N.ar      1 <0>        -0.5652
     22 C17         3.6497    3.5833    0.0030 C.ar      1 <0>         0.2114
     23 N4          7.1349    4.2909   -0.0404 N.pl3     1 <0>        -0.5881
     24 C18         8.4861    3.7128   -0.0785 C.3       1 <0>         0.1222
     25 C19         9.4877    4.8866   -0.0495 C.3       1 <0>        -0.1342
     26 C20         8.6554    6.0382    0.5739 C.3       1 <0>        -0.1354
     27 C21         7.2498    5.7605   -0.0209 C.3       1 <0>         0.1201
     28 H1         -0.9606    1.9004    0.0570 H         1 <0>         0.1354
     29 H2          1.1450    3.1684    0.0354 H         1 <0>         0.1320
     30 H3          3.3604   -0.4965   -0.0362 H         1 <0>         0.1396
     31 H4         -0.9263   -0.5562    0.0257 H         1 <0>         0.1270
     32 H5         -0.7625   -2.3852    0.0711 H         1 <0>         0.4132
     33 H6         -1.7117   -4.3337   -1.2766 H         1 <0>         0.1360
     34 H7         -1.6807   -6.7866   -1.4739 H         1 <0>         0.1381
     35 H8          1.9313   -6.9318    0.7929 H         1 <0>         0.1375
     36 H9          1.9141   -4.4784    0.9863 H         1 <0>         0.1489
     37 H10         4.9385    0.4522   -0.0587 H         1 <0>         0.1706
     38 H11         2.7157    4.1253    0.0220 H         1 <0>         0.1699
     39 H12         8.6401    3.0727    0.7902 H         1 <0>         0.0702
     40 H13         8.6171    3.1363   -0.9942 H         1 <0>         0.0696
     41 H14        10.3452    4.6464    0.5790 H         1 <0>         0.0863
     42 H15         9.8082    5.1450   -1.0588 H         1 <0>         0.0788
     43 H16         8.6440    5.9675    1.6615 H         1 <0>         0.0777
     44 H17         9.0295    7.0097    0.2509 H         1 <0>         0.0884
     45 H18         7.1777    6.1602   -1.0324 H         1 <0>         0.0689
     46 H19         6.4772    6.1930    0.6148 H         1 <0>         0.0825
@<TRIPOS>BOND
     1    1    6 ar
     2    1    2 ar
     3    1   28 1
     4    2    3 ar
     5    2   29 1
     6    3    4 ar
     7    3   17 1
     8    4    5 ar
     9    4   30 1
    10    5    6 ar
    11    5    7 1
    12    6   31 1
    13    7    8 2
    14    7    9 am
    15    9   10 1
    16    9   32 1
    17   10   15 ar
    18   10   11 ar
    19   11   12 ar
    20   11   33 1
    21   12   13 ar
    22   12   34 1
    23   13   14 ar
    24   13   16 1
    25   14   15 ar
    26   14   35 1
    27   15   36 1
    28   17   22 ar
    29   17   18 ar
    30   18   19 ar
    31   18   37 1
    32   19   20 ar
    33   20   21 ar
    34   20   23 1
    35   21   22 ar
    36   22   38 1
    37   23   27 1
    38   23   24 1
    39   24   25 1
    40   24   39 1
    41   24   40 1
    42   25   26 1
    43   25   41 1
    44   25   42 1
    45   26   27 1
    46   26   43 1
    47   26   44 1
    48   27   45 1
    49   27   46 1
@<TRIPOS>MOLECULE
ZINC19345579
   57    61     0     0     0
SMALL
USER_CHARGES
(4R)-6-chloro-1'-[(2S)-2-(2,3-dihydro-1,4-benzodioxin-6-yl)-2-hydroxy-ethyl]spiro[chroman-2,4'-piperidine]-4-ol
@<TRIPOS>ATOM
      1 C1          1.1934   -0.7545   -0.0123 C.ar      1 <0>        -0.0797
      2 C2         -0.0254   -0.1021    0.0015 C.ar      1 <0>        -0.1159
      3 C3         -0.0717    1.2836   -0.0085 C.ar      1 <0>         0.0751
      4 C4          1.1105    2.0147   -0.0294 C.ar      1 <0>         0.0541
      5 C5          2.3295    1.3542   -0.0442 C.ar      1 <0>        -0.0959
      6 C6          2.3687   -0.0276   -0.0353 C.ar      1 <0>        -0.1113
      7 C7          3.6951   -0.7427   -0.0513 C.3       1 <0>         0.1508
      8 H1          4.4756   -0.0949   -0.4770 H         1 <0>         0.0896
      9 C8          4.0473   -1.1958    1.3670 C.3       1 <0>        -0.0367
     10 N1          5.3263   -1.9182    1.3469 N.4       1 <0>        -0.3976
     11 C9          6.3647   -1.1310    0.6696 C.3       1 <0>        -0.0180
     12 C10         7.6378   -1.9702    0.5371 C.3       1 <0>        -0.1297
     13 C11         8.1127   -2.3913    1.9292 C.3       1 <0>         0.1149
     14 C12         6.9970   -3.1635    2.6353 C.3       1 <0>        -0.1751
     15 C13         5.7422   -2.2899    2.7052 C.3       1 <0>         0.0014
     16 C14         9.3508   -3.2848    1.7977 C.3       1 <0>        -0.1416
     17 C15         9.7427   -3.7752    3.1938 C.3       1 <0>         0.1633
     18 H2          9.0545   -4.5523    3.5579 H         1 <0>         0.0707
     19 C16         9.7714   -2.6109    4.1512 C.ar      1 <0>        -0.1823
     20 C17        10.4518   -2.7506    5.3496 C.ar      1 <0>        -0.0683
     21 C18        10.4909   -1.7071    6.2550 C.ar      1 <0>        -0.0564
     22 C19         9.8481   -0.5164    5.9651 C.ar      1 <0>        -0.0697
     23 C20         9.1712   -0.3717    4.7718 C.ar      1 <0>        -0.1312
     24 C21         9.1319   -1.4197    3.8573 C.ar      1 <0>         0.1334
     25 O1          8.4600   -1.2364    2.6907 O.3       1 <0>        -0.3038
     26 Cl1        11.3463   -1.8898    7.7545 Cl        1 <0>        -0.0505
     27 O2         11.0368   -4.3788    3.1400 O.3       1 <0>        -0.5838
     28 O3          3.6114   -1.8828   -0.9086 O.3       1 <0>        -0.5704
     29 O4          1.0877    3.3756   -0.0312 O.3       1 <0>        -0.3056
     30 C22        -0.1498    3.9981   -0.3931 C.3       1 <0>         0.0161
     31 C23        -1.2821    3.2953    0.3678 C.3       1 <0>         0.0163
     32 O5         -1.2791    1.9119   -0.0032 O.3       1 <0>        -0.3008
     33 H3          1.2272   -1.8339   -0.0047 H         1 <0>         0.1382
     34 H4         -0.9423   -0.6725    0.0197 H         1 <0>         0.1430
     35 H5          3.2494    1.9198   -0.0627 H         1 <0>         0.1375
     36 H6          4.1332   -0.3164    2.0221 H         1 <0>         0.1398
     37 H7          3.2569   -1.8600    1.7466 H         1 <0>         0.1440
     38 H8          6.0111   -0.8415   -0.3310 H         1 <0>         0.1381
     39 H9          6.5815   -0.2270    1.2576 H         1 <0>         0.1397
     40 H10         7.4258   -2.8653   -0.0661 H         1 <0>         0.1145
     41 H11         8.4206   -1.3738    0.0456 H         1 <0>         0.1283
     42 H12         6.7747   -4.0826    2.0732 H         1 <0>         0.1105
     43 H13         7.3201   -3.4256    3.6536 H         1 <0>         0.1194
     44 H14         5.9613   -1.3801    3.2834 H         1 <0>         0.1326
     45 H15         4.9329   -2.8503    3.1961 H         1 <0>         0.1372
     46 H16         9.1170   -4.1422    1.1494 H         1 <0>         0.1005
     47 H17        10.1757   -2.7059    1.3567 H         1 <0>         0.1003
     48 H18        10.9536   -3.6793    5.5778 H         1 <0>         0.1378
     49 H19         9.8766    0.2992    6.6725 H         1 <0>         0.1467
     50 H20         8.6697    0.5580    4.5468 H         1 <0>         0.1425
     51 H21        11.4890   -4.7927    4.0533 H         1 <0>         0.4189
     52 H22         4.4883   -2.5323   -1.0472 H         1 <0>         0.4013
     53 H23        -0.1173    5.0637   -0.1220 H         1 <0>         0.1318
     54 H24        -0.3061    3.9003   -1.4775 H         1 <0>         0.0842
     55 H25        -1.1146    3.3968    1.4502 H         1 <0>         0.0844
     56 H26        -2.2445    3.7562    0.1009 H         1 <0>         0.1327
     57 H27         5.1833   -2.8468    0.7748 H         1 <0>         0.4346
@<TRIPOS>BOND
     1    1    6 ar
     2    1    2 ar
     3    1   33 1
     4    2    3 ar
     5    2   34 1
     6    3   32 1
     7    3    4 ar
     8    4    5 ar
     9    4   29 1
    10    5    6 ar
    11    5   35 1
    12    6    7 1
    13    7    8 1
    14    7    9 1
    15    7   28 1
    16    9   10 1
    17    9   36 1
    18    9   37 1
    19   10   15 1
    20   10   11 1
    21   10   57 1
    22   11   12 1
    23   11   38 1
    24   11   39 1
    25   12   13 1
    26   12   40 1
    27   12   41 1
    28   13   25 1
    29   13   14 1
    30   13   16 1
    31   14   15 1
    32   14   42 1
    33   14   43 1
    34   15   44 1
    35   15   45 1
    36   16   17 1
    37   16   46 1
    38   16   47 1
    39   17   18 1
    40   17   19 1
    41   17   27 1
    42   19   24 ar
    43   19   20 ar
    44   20   21 ar
    45   20   48 1
    46   21   22 ar
    47   21   26 1
    48   22   23 ar
    49   22   49 1
    50   23   24 ar
    51   23   50 1
    52   24   25 1
    53   27   51 1
    54   28   52 1
    55   29   30 1
    56   30   31 1
    57   30   53 1
    58   30   54 1
    59   31   32 1
    60   31   55 1
    61   31   56 1
@<TRIPOS>MOLECULE
ZINC35361976
   64    68     0     0     0
SMALL
USER_CHARGES

@<TRIPOS>ATOM
      1 C1         -0.4888    1.5017    0.1301 C.3       1 <0>        -0.1629
      2 C2         -0.5208   -0.0277    0.1038 C.3       1 <0>        -0.0698
      3 H1         -1.5226   -0.3792    0.3508 H         1 <0>         0.0781
      4 C3         -0.1246   -0.5301   -1.2897 C.3       1 <0>        -0.1151
      5 C4          1.3131   -0.1199   -1.6055 C.3       1 <0>        -0.1307
      6 C5          2.2797   -0.7512   -0.5988 C.3       1 <0>        -0.1093
      7 C6          1.9434   -0.2342    0.7991 C.3       1 <0>        -0.0325
      8 C7          0.4882   -0.5846    1.1167 C.3       1 <0>         0.0837
      9 C8          0.0830   -0.7744    2.5620 C.3       1 <0>        -0.0507
     10 H2         -0.9223   -0.4623    2.8448 H         1 <0>         0.1053
     11 O1          0.1965   -1.8778    1.6466 O.3       1 <0>        -0.3263
     12 C9          1.1062   -0.7926    3.6941 C.3       1 <0>        -0.1149
     13 H3          1.1361   -1.7592    4.1970 H         1 <0>         0.1364
     14 C10         2.5011   -0.3480    3.2183 C.3       1 <0>         0.0957
     15 H4          3.2536   -0.6444    3.9491 H         1 <0>         0.1105
     16 C11         2.8470   -0.8571    1.8562 C.3       1 <0>        -0.1193
     17 O2          2.4051    1.0844    3.1701 O.3       1 <0>        -0.3037
     18 C12         1.6895    1.4910    4.2393 C.2       1 <0>         0.4845
     19 O3          1.7783    2.5709    4.7738 O.2       1 <0>        -0.4140
     20 C13         0.7453    0.3634    4.6694 C.3       1 <0>        -0.1785
     21 H5          0.9389    0.0683    5.7007 H         1 <0>         0.1465
     22 C14        -0.7171    0.7774    4.4935 C.3       1 <0>        -0.0046
     23 N1         -1.5918   -0.3337    4.8914 N.4       1 <0>        -0.3878
     24 C15        -1.4517   -0.5749    6.3337 C.3       1 <0>        -0.0611
     25 C16        -2.9874    0.0080    4.5854 C.3       1 <0>        -0.0491
     26 C17        -3.8842   -1.1952    4.8836 C.3       1 <0>         0.1377
     27 H6         -3.7977   -1.4605    5.9373 H         1 <0>         0.1339
     28 C18        -5.3159   -0.8447    4.5697 C.ar      1 <0>        -0.1556
     29 C19        -5.7932   -0.9827    3.2794 C.ar      1 <0>        -0.0871
     30 C20        -7.1051   -0.6616    2.9890 C.ar      1 <0>        -0.1396
     31 C21        -7.9438   -0.2007    3.9934 C.ar      1 <0>         0.1335
     32 C22        -7.4625   -0.0635    5.2873 C.ar      1 <0>        -0.1406
     33 C23        -6.1513   -0.3909    5.5736 C.ar      1 <0>        -0.0817
     34 O4         -9.2346    0.1162    3.7101 O.3       1 <0>        -0.4968
     35 O5         -3.4776   -2.3035    4.0784 O.3       1 <0>        -0.5460
     36 C24         2.1038    1.2871    0.8284 C.3       1 <0>        -0.1474
     37 H7          0.3620    1.8574   -0.4510 H         1 <0>         0.0847
     38 H8         -1.4112    1.8919   -0.3001 H         1 <0>         0.0651
     39 H9         -0.3944    1.8455    1.1602 H         1 <0>         0.0530
     40 H10        -0.2052   -1.6168   -1.3187 H         1 <0>         0.0684
     41 H11        -0.7951   -0.0996   -2.0334 H         1 <0>         0.0757
     42 H12         1.5708   -0.4531   -2.6109 H         1 <0>         0.0741
     43 H13         1.3979    0.9656   -1.5552 H         1 <0>         0.0759
     44 H14         2.1744   -1.8359   -0.6222 H         1 <0>         0.0698
     45 H15         3.3033   -0.4763   -0.8535 H         1 <0>         0.0789
     46 H16         2.7072   -1.9381    1.8628 H         1 <0>         0.0977
     47 H17         3.8873   -0.6263    1.6269 H         1 <0>         0.1006
     48 H18        -0.9264    1.6461    5.1177 H         1 <0>         0.1527
     49 H19        -0.9006    1.0281    3.4487 H         1 <0>         0.1421
     50 H20        -0.4035   -0.7565    6.5715 H         1 <0>         0.1272
     51 H21        -1.8032    0.2979    6.8839 H         1 <0>         0.1310
     52 H22        -2.0443   -1.4451    6.6158 H         1 <0>         0.1318
     53 H23        -3.2975    0.8534    5.1996 H         1 <0>         0.1503
     54 H24        -3.0738    0.2734    3.5318 H         1 <0>         0.1354
     55 H25        -5.1399   -1.3416    2.4979 H         1 <0>         0.1262
     56 H26        -7.4773   -0.7690    1.9809 H         1 <0>         0.1384
     57 H27        -8.1135    0.2951    6.0709 H         1 <0>         0.1392
     58 H28        -5.7774   -0.2884    6.5816 H         1 <0>         0.1326
     59 H29        -9.8512   -0.6225    3.8063 H         1 <0>         0.4027
     60 H30        -3.5289   -2.1382    3.1270 H         1 <0>         0.3881
     61 H31         1.8606    1.6970   -0.1518 H         1 <0>         0.0727
     62 H32         1.4315    1.7089    1.5756 H         1 <0>         0.0667
     63 H33         3.1334    1.5391    1.0825 H         1 <0>         0.0706
     64 H34        -1.3303   -1.1659    4.3843 H         1 <0>         0.4279
@<TRIPOS>BOND
     1    1    2 1
     2    1   37 1
     3    1   38 1
     4    1   39 1
     5    2    3 1
     6    2    8 1
     7    2    4 1
     8    4    5 1
     9    4   40 1
    10    4   41 1
    11    5    6 1
    12    5   42 1
    13    5   43 1
    14    6    7 1
    15    6   44 1
    16    6   45 1
    17    7   16 1
    18    7    8 1
    19    7   36 1
    20    8   11 1
    21    8    9 1
    22    9   10 1
    23    9   11 1
    24    9   12 1
    25   12   13 1
    26   12   20 1
    27   12   14 1
    28   14   15 1
    29   14   16 1
    30   14   17 1
    31   16   46 1
    32   16   47 1
    33   17   18 1
    34   18   19 2
    35   18   20 1
    36   20   21 1
    37   20   22 1
    38   22   23 1
    39   22   48 1
    40   22   49 1
    41   23   24 1
    42   23   25 1
    43   23   64 1
    44   24   50 1
    45   24   51 1
    46   24   52 1
    47   25   26 1
    48   25   53 1
    49   25   54 1
    50   26   27 1
    51   26   28 1
    52   26   35 1
    53   28   33 ar
    54   28   29 ar
    55   29   30 ar
    56   29   55 1
    57   30   31 ar
    58   30   56 1
    59   31   32 ar
    60   31   34 1
    61   32   33 ar
    62   32   57 1
    63   33   58 1
    64   34   59 1
    65   35   60 1
    66   36   61 1
    67   36   62 1
    68   36   63 1
@<TRIPOS>MOLECULE
ZINC39668326
   65    69     0     0     0
SMALL
USER_CHARGES

@<TRIPOS>ATOM
      1 C1          1.8088   -3.8985   -1.0407 C.ar      1 <0>        -0.0601
      2 C2          2.8773   -4.7714   -1.0529 C.ar      1 <0>        -0.1373
      3 C3          2.6764   -6.1290   -0.8176 C.ar      1 <0>         0.1231
      4 C4          1.3860   -6.5847   -0.5781 C.ar      1 <0>        -0.1785
      5 C5          0.3218   -5.7111   -0.5613 C.ar      1 <0>        -0.0521
      6 C6          0.5303   -4.3628   -0.7935 C.ar      1 <0>        -0.1491
      7 C7         -0.6322   -3.4039   -0.7764 C.3       1 <0>         0.1671
      8 N1         -1.1966   -3.2968   -2.1241 N.am      1 <0>        -0.7239
      9 C8         -2.2522   -2.4900   -2.3503 C.2       1 <0>         0.5187
     10 O1         -2.7349   -1.8527   -1.4383 O.2       1 <0>        -0.5196
     11 C9         -2.8329   -2.3798   -3.7366 C.3       1 <0>        -0.1130
     12 H1         -2.0578   -2.5412   -4.4858 H         1 <0>         0.1109
     13 C10        -3.4932   -0.9970   -3.9349 C.3       1 <0>         0.1134
     14 N2         -4.6964   -1.2709   -4.7555 N.am      1 <0>        -0.6244
     15 C11        -5.2284   -2.5452   -4.2158 C.3       1 <0>         0.1036
     16 C12        -3.9751   -3.3930   -3.9209 C.3       1 <0>        -0.0717
     17 C13        -4.1750   -4.2022   -2.6431 C.3       1 <0>        -0.1481
     18 C14        -5.2758   -5.2422   -2.8697 C.3       1 <0>        -0.0076
     19 N3         -4.8958   -6.1262   -3.9782 N.4       1 <0>        -0.5050
     20 C15        -4.7966   -5.3542   -5.2228 C.3       1 <0>        -0.0108
     21 C16        -3.6754   -4.3191   -5.0957 C.3       1 <0>        -0.1357
     22 C17        -5.1943   -0.5293   -5.7648 C.2       1 <0>         0.5392
     23 O2         -4.5971    0.4551   -6.1459 O.2       1 <0>        -0.5142
     24 C18        -6.4930   -0.9234   -6.4198 C.3       1 <0>        -0.0965
     25 H2         -6.5789   -2.0098   -6.4388 H         1 <0>         0.0864
     26 C19        -6.5341   -0.3778   -7.8528 C.3       1 <0>        -0.1049
     27 C20        -7.7752   -0.9401   -8.5494 C.3       1 <0>        -0.0932
     28 C21        -8.9862   -0.7446   -7.6849 C.2       1 <0>        -0.1498
     29 C22        -8.9384   -0.4809   -6.4185 C.2       1 <0>        -0.1605
     30 C23        -7.6654   -0.3283   -5.6368 C.3       1 <0>        -0.0778
     31 C24         1.4739   -8.0861   -0.3841 C.3       1 <0>        -0.1105
     32 C25         2.8833   -8.3987   -0.9403 C.3       1 <0>         0.0495
     33 O3          3.5758   -7.1499   -0.7725 O.3       1 <0>        -0.3000
     34 H3          1.9727   -2.8464   -1.2209 H         1 <0>         0.1354
     35 H4          3.8730   -4.4004   -1.2459 H         1 <0>         0.1350
     36 H5         -0.6753   -6.0780   -0.3677 H         1 <0>         0.1226
     37 H6         -1.3959   -3.7710   -0.0908 H         1 <0>         0.0792
     38 H7         -0.2893   -2.4231   -0.4471 H         1 <0>         0.0829
     39 H8         -0.8106   -3.8065   -2.8535 H         1 <0>         0.4012
     40 H9         -3.7782   -0.5705   -2.9732 H         1 <0>         0.0984
     41 H10        -2.8171   -0.3254   -4.4641 H         1 <0>         0.0959
     42 H11        -5.7911   -2.3649   -3.2999 H         1 <0>         0.0877
     43 H12        -5.8554   -3.0401   -4.9575 H         1 <0>         0.0851
     44 H13        -3.2449   -4.7076   -2.3832 H         1 <0>         0.0977
     45 H14        -4.4661   -3.5351   -1.8317 H         1 <0>         0.1270
     46 H15        -5.4093   -5.8330   -1.9635 H         1 <0>         0.1395
     47 H16        -6.2096   -4.7353   -3.1132 H         1 <0>         0.1334
     48 H17        -4.0038   -6.5523   -3.7762 H         1 <0>         0.4282
     49 H18        -4.5769   -6.0277   -6.0512 H         1 <0>         0.1402
     50 H19        -5.7417   -4.8447   -5.4103 H         1 <0>         0.1323
     51 H20        -3.6143   -3.7344   -6.0135 H         1 <0>         0.1187
     52 H21        -2.7273   -4.8288   -4.9246 H         1 <0>         0.0974
     53 H22        -6.5887    0.7106   -7.8291 H         1 <0>         0.0802
     54 H23        -5.6389   -0.6912   -8.3900 H         1 <0>         0.0713
     55 H24        -7.9217   -0.4243   -9.4984 H         1 <0>         0.0819
     56 H25        -7.6333   -2.0043   -8.7370 H         1 <0>         0.0734
     57 H26        -9.9581   -0.8288   -8.1482 H         1 <0>         0.1088
     58 H27        -9.8729   -0.3669   -5.8893 H         1 <0>         0.1103
     59 H28        -7.7601   -0.8435   -4.6809 H         1 <0>         0.0739
     60 H29        -7.4795    0.7306   -5.4573 H         1 <0>         0.0834
     61 H30         1.4054   -8.3470    0.6720 H         1 <0>         0.0945
     62 H31         0.7048   -8.5992   -0.9613 H         1 <0>         0.0909
     63 H32         3.3618   -9.1868   -0.3590 H         1 <0>         0.1121
     64 H33         2.8305   -8.6724   -1.9941 H         1 <0>         0.0801
     65 H34        -5.5933   -6.8473   -4.0859 H         1 <0>         0.4342
@<TRIPOS>BOND
     1    1    6 ar
     2    1    2 ar
     3    1   34 1
     4    2    3 ar
     5    2   35 1
     6    3   33 1
     7    3    4 ar
     8    4    5 ar
     9    4   31 1
    10    5    6 ar
    11    5   36 1
    12    6    7 1
    13    7    8 1
    14    7   37 1
    15    7   38 1
    16    8    9 am
    17    8   39 1
    18    9   10 2
    19    9   11 1
    20   11   12 1
    21   11   16 1
    22   11   13 1
    23   13   14 1
    24   13   40 1
    25   13   41 1
    26   14   15 1
    27   14   22 am
    28   15   16 1
    29   15   42 1
    30   15   43 1
    31   16   21 1
    32   16   17 1
    33   17   18 1
    34   17   44 1
    35   17   45 1
    36   18   19 1
    37   18   46 1
    38   18   47 1
    39   19   20 1
    40   19   48 1
    41   19   65 1
    42   20   21 1
    43   20   49 1
    44   20   50 1
    45   21   51 1
    46   21   52 1
    47   22   23 2
    48   22   24 1
    49   24   25 1
    50   24   30 1
    51   24   26 1
    52   26   27 1
    53   26   53 1
    54   26   54 1
    55   27   28 1
    56   27   55 1
    57   27   56 1
    58   28   29 2
    59   28   57 1
    60   29   30 1
    61   29   58 1
    62   30   59 1
    63   30   60 1
    64   31   32 1
    65   31   61 1
    66   31   62 1
    67   32   33 1
    68   32   63 1
    69   32   64 1
@<TRIPOS>MOLECULE
ZINC36024399
   65    68     0     0     0
SMALL
USER_CHARGES

@<TRIPOS>ATOM
      1 C1         -0.4116   -1.5204   -1.5848 C.3       1 <0>        -0.1173
      2 C2          0.3444   -1.2382   -0.3121 C.ar      1 <0>        -0.0719
      3 C3          1.2311   -0.1782   -0.2560 C.ar      1 <0>        -0.1075
      4 C4          1.9268    0.0841    0.9097 C.ar      1 <0>        -0.1072
      5 C5          1.7381   -0.7123    2.0224 C.ar      1 <0>        -0.1269
      6 C6          0.8485   -1.7773    1.9694 C.ar      1 <0>         0.1123
      7 C7          0.1470   -2.0347    0.7985 C.ar      1 <0>        -0.0728
      8 N1          0.6551   -2.5858    3.0945 N.pl3     1 <0>        -0.6211
      9 C8          0.5509   -3.9221    2.9542 C.2       1 <0>         0.5514
     10 S1          0.7940   -4.6434    1.4207 S.2       1 <0>        -0.5759
     11 N2          0.2553   -4.6907    4.0211 N.pl3     1 <0>        -0.5841
     12 C9         -0.0736   -4.0790    5.3159 C.3       1 <0>         0.0946
     13 C10         0.8462   -4.6719    6.3886 C.3       1 <0>        -0.1600
     14 C11         0.7421   -6.1956    6.3596 C.3       1 <0>         0.2877
     15 C12         1.1723   -6.7315    4.9954 C.3       1 <0>        -0.1619
     16 C13         0.2499   -6.1558    3.9095 C.3       1 <0>         0.0750
     17 N3          1.5986   -6.7745    7.4161 N.4       1 <0>        -0.5154
     18 C14         0.6713   -6.9071    8.5657 C.3       1 <0>        -0.0011
     19 H1          0.7212   -6.0205    9.1978 H         1 <0>         0.1755
     20 C15        -0.7017   -7.0326    7.9416 C.2       1 <0>         0.5253
     21 O1         -1.6991   -7.4391    8.4992 O.2       1 <0>        -0.4253
     22 N4         -0.6291   -6.6159    6.6603 N.am      1 <0>        -0.6106
     23 C16        -1.7486   -6.5872    5.7157 C.3       1 <0>         0.0984
     24 C17        -1.8489   -7.9372    5.0027 C.3       1 <0>         0.0504
     25 H2         -0.9293   -8.1333    4.4515 H         1 <0>         0.0909
     26 C18        -3.0496   -7.9290    4.0322 C.3       1 <0>        -0.1542
     27 C19        -3.6250   -9.3608    4.2076 C.3       1 <0>        -0.1549
     28 C20        -3.3389   -9.6107    5.7098 C.3       1 <0>         0.0504
     29 O2         -2.0721   -8.9777    5.9614 O.3       1 <0>        -0.3688
     30 C21         1.0060   -8.1593    9.3786 C.3       1 <0>        -0.0969
     31 C22         0.0381   -8.2757   10.5577 C.3       1 <0>        -0.1633
     32 C23         0.8752   -9.3960    8.4873 C.3       1 <0>        -0.1739
     33 H3         -1.3504   -0.9666   -1.5801 H         1 <0>         0.0726
     34 H4          0.1886   -1.2107   -2.4403 H         1 <0>         0.0707
     35 H5         -0.6200   -2.5880   -1.6545 H         1 <0>         0.0709
     36 H6          1.3807    0.4457   -1.1248 H         1 <0>         0.1286
     37 H7          2.6187    0.9123    0.9502 H         1 <0>         0.1308
     38 H8          2.2820   -0.5071    2.9326 H         1 <0>         0.1218
     39 H9         -0.5491   -2.8593    0.7555 H         1 <0>         0.1411
     40 H10         0.5960   -2.1845    3.9757 H         1 <0>         0.4028
     41 H11         0.0777   -3.0011    5.2598 H         1 <0>         0.1050
     42 H12        -1.1127   -4.2918    5.5672 H         1 <0>         0.1026
     43 H13         1.8757   -4.3739    6.1899 H         1 <0>         0.1133
     44 H14         0.5441   -4.3053    7.3696 H         1 <0>         0.1132
     45 H15         2.2019   -6.4344    4.7963 H         1 <0>         0.1153
     46 H16         1.1003   -7.8191    4.9928 H         1 <0>         0.1168
     47 H17        -0.7642   -6.5294    4.0517 H         1 <0>         0.1162
     48 H18         0.6148   -6.4486    2.9251 H         1 <0>         0.1522
     49 H19         1.9494   -7.6779    7.1352 H         1 <0>         0.4373
     50 H20        -2.6750   -6.3920    6.2560 H         1 <0>         0.1095
     51 H21        -1.5838   -5.7994    4.9807 H         1 <0>         0.1157
     52 H22        -3.7820   -7.1777    4.3276 H         1 <0>         0.0838
     53 H23        -2.7182   -7.7670    3.0065 H         1 <0>         0.0941
     54 H24        -4.6954   -9.3818    4.0028 H         1 <0>         0.0917
     55 H25        -3.0930  -10.0773    3.5819 H         1 <0>         0.0843
     56 H26        -4.1174   -9.1579    6.3237 H         1 <0>         0.0657
     57 H27        -3.2728  -10.6802    5.9095 H         1 <0>         0.0914
     58 H28         2.0273   -8.0874    9.7526 H         1 <0>         0.1064
     59 H29        -0.9832   -8.3476   10.1837 H         1 <0>         0.0908
     60 H30         0.2765   -9.1678   11.1368 H         1 <0>         0.0805
     61 H31         0.1313   -7.3947   11.1927 H         1 <0>         0.0666
     62 H32        -0.1461   -9.4679    8.1133 H         1 <0>         0.0827
     63 H33         1.5648   -9.3130    7.6473 H         1 <0>         0.0473
     64 H34         1.1137  -10.2881    9.0664 H         1 <0>         0.0920
     65 H35         2.3582   -6.1497    7.6412 H         1 <0>         0.4455
@<TRIPOS>BOND
     1    1    2 1
     2    1   33 1
     3    1   34 1
     4    1   35 1
     5    2    7 ar
     6    2    3 ar
     7    3    4 ar
     8    3   36 1
     9    4    5 ar
    10    4   37 1
    11    5    6 ar
    12    5   38 1
    13    6    7 ar
    14    6    8 1
    15    7   39 1
    16    8    9 1
    17    8   40 1
    18    9   10 2
    19    9   11 1
    20   11   16 1
    21   11   12 1
    22   12   13 1
    23   12   41 1
    24   12   42 1
    25   13   14 1
    26   13   43 1
    27   13   44 1
    28   14   22 1
    29   14   15 1
    30   14   17 1
    31   15   16 1
    32   15   45 1
    33   15   46 1
    34   16   47 1
    35   16   48 1
    36   17   18 1
    37   17   49 1
    38   17   65 1
    39   18   19 1
    40   18   20 1
    41   18   30 1
    42   20   21 2
    43   20   22 am
    44   22   23 1
    45   23   24 1
    46   23   50 1
    47   23   51 1
    48   24   25 1
    49   24   29 1
    50   24   26 1
    51   26   27 1
    52   26   52 1
    53   26   53 1
    54   27   28 1
    55   27   54 1
    56   27   55 1
    57   28   29 1
    58   28   56 1
    59   28   57 1
    60   30   31 1
    61   30   32 1
    62   30   58 1
    63   31   59 1
    64   31   60 1
    65   31   61 1
    66   32   62 1
    67   32   63 1
    68   32   64 1
@<TRIPOS>MOLECULE
ZINC65265760
   55    58     0     0     0
SMALL
USER_CHARGES

@<TRIPOS>ATOM
      1 C1         -0.4958    1.8675    0.4752 C.3       1 <0>         0.0286
      2 O1         -0.3321    0.4647    0.2574 O.3       1 <0>        -0.3986
      3 C2          0.3101    0.1393   -0.9770 C.3       1 <0>         0.0342
      4 C3          0.4316   -1.3807   -1.1034 C.3       1 <0>         0.0511
      5 N1         -0.9058   -1.9716   -1.1947 N.pl3     1 <0>        -0.5163
      6 C4         -1.0403   -3.2529   -1.3085 C.cat     1 <0>         0.5608
      7 N2          0.0459   -4.0934   -1.3416 N.pl3     1 <0>        -0.7373
      8 C5          0.5249   -4.6209   -0.1464 C.ar      1 <0>         0.1364
      9 C6          1.8884   -4.6283    0.1116 C.ar      1 <0>        -0.1259
     10 C7          2.3686   -5.1642    1.2897 C.ar      1 <0>        -0.0852
     11 C8          1.4796   -5.6935    2.2076 C.ar      1 <0>        -0.1075
     12 C9          0.1251   -5.6808    1.9537 C.ar      1 <0>        -0.0841
     13 C10        -0.3773   -5.1376    0.7751 C.ar      1 <0>        -0.1449
     14 C11        -1.8754   -5.1394    0.6093 C.3       1 <0>         0.0769
     15 N3         -2.2902   -5.2373   -0.7968 N.3       1 <0>        -0.6226
     16 C12        -2.3818   -3.8948   -1.4044 C.3       1 <0>         0.0797
     17 C13        -2.8698   -3.9977   -2.8594 C.3       1 <0>        -0.1109
     18 C14        -4.4065   -4.0490   -2.7024 C.3       1 <0>         0.1016
     19 N4         -4.7312   -3.4819   -1.3842 N.am      1 <0>        -0.6064
     20 C15        -3.4778   -3.0616   -0.7256 C.3       1 <0>         0.1198
     21 C16        -5.9688   -3.3654   -0.8632 C.2       1 <0>         0.5907
     22 O2         -6.1135   -2.9687    0.2768 O.2       1 <0>        -0.4991
     23 C17        -7.1491   -3.7198   -1.6773 C.ar      1 <0>        -0.1439
     24 C18        -7.2356   -3.3012   -3.0068 C.ar      1 <0>        -0.1014
     25 C19        -8.3416   -3.6364   -3.7623 C.ar      1 <0>         0.0914
     26 C20        -9.3654   -4.3865   -3.2039 C.ar      1 <0>        -0.0933
     27 C21        -9.2869   -4.8043   -1.8891 C.ar      1 <0>        -0.1232
     28 C22        -8.1822   -4.4808   -1.1222 C.ar      1 <0>         0.1477
     29 F1         -8.1042   -4.8947    0.1614 F         1 <0>        -0.1144
     30 F2         -8.4267   -3.2322   -5.0485 F         1 <0>        -0.1260
     31 H1          0.4814    2.3504    0.4839 H         1 <0>         0.0551
     32 H2         -1.1032    2.2909   -0.3248 H         1 <0>         0.0516
     33 H3         -0.9906    2.0313    1.4326 H         1 <0>         0.1001
     34 H4         -0.2805    0.5268   -1.8071 H         1 <0>         0.0737
     35 H5          1.3040    0.5862   -0.9984 H         1 <0>         0.0984
     36 H6          0.9995   -1.6264   -2.0008 H         1 <0>         0.1385
     37 H7          0.9455   -1.7781   -0.2281 H         1 <0>         0.1327
     38 H8         -1.6905   -1.4018   -1.1699 H         1 <0>         0.4450
     39 H9          2.5756   -4.2141   -0.6112 H         1 <0>         0.1350
     40 H10         3.4293   -5.1704    1.4927 H         1 <0>         0.1406
     41 H11         1.8491   -6.1197    3.1286 H         1 <0>         0.1375
     42 H12        -0.5563   -6.0991    2.6797 H         1 <0>         0.1373
     43 H13        -2.2892   -5.9854    1.1581 H         1 <0>         0.1200
     44 H14        -2.2773   -4.2183    1.0315 H         1 <0>         0.0900
     45 H15        -1.6630   -5.8313   -1.3183 H         1 <0>         0.3704
     46 H16        -2.5691   -3.1193   -3.4305 H         1 <0>         0.0963
     47 H17        -2.4988   -4.9095   -3.3276 H         1 <0>         0.1182
     48 H18        -4.8791   -3.4578   -3.4868 H         1 <0>         0.0897
     49 H19        -4.7502   -5.0820   -2.7562 H         1 <0>         0.0953
     50 H20        -3.5169   -3.2825    0.3411 H         1 <0>         0.1124
     51 H21        -3.3017   -1.9982   -0.8878 H         1 <0>         0.0734
     52 H22        -6.4394   -2.7163   -3.4430 H         1 <0>         0.1505
     53 H23       -10.2285   -4.6452   -3.7994 H         1 <0>         0.1574
     54 H24       -10.0880   -5.3883   -1.4606 H         1 <0>         0.1599
     55 H25         0.4717   -4.3157   -2.1843 H         1 <0>         0.4431
@<TRIPOS>BOND
     1    1    2 1
     2    1   31 1
     3    1   32 1
     4    1   33 1
     5    2    3 1
     6    3    4 1
     7    3   34 1
     8    3   35 1
     9    4    5 1
    10    4   36 1
    11    4   37 1
    12    5    6 2
    13    5   38 1
    14    6   16 1
    15    6    7 1
    16    7    8 1
    17    7   55 1
    18    8   13 ar
    19    8    9 ar
    20    9   10 ar
    21    9   39 1
    22   10   11 ar
    23   10   40 1
    24   11   12 ar
    25   11   41 1
    26   12   13 ar
    27   12   42 1
    28   13   14 1
    29   14   15 1
    30   14   43 1
    31   14   44 1
    32   15   16 1
    33   15   45 1
    34   16   20 1
    35   16   17 1
    36   17   18 1
    37   17   46 1
    38   17   47 1
    39   18   19 1
    40   18   48 1
    41   18   49 1
    42   19   20 1
    43   19   21 am
    44   20   50 1
    45   20   51 1
    46   21   22 2
    47   21   23 1
    48   23   28 ar
    49   23   24 ar
    50   24   25 ar
    51   24   52 1
    52   25   26 ar
    53   25   30 1
    54   26   27 ar
    55   26   53 1
    56   27   28 ar
    57   27   54 1
    58   28   29 1
@<TRIPOS>MOLECULE
ZINC12498757
   54    57     0     0     0
SMALL
USER_CHARGES
1-(2,4-dimethylphenyl)-3-[(1S,5R)-8-(2-furylmethyl)-8-azabicyclo[3.2.1]octan-3-yl]thiourea
@<TRIPOS>ATOM
      1 C1         -6.0644   -0.5177   -0.4020 C.3       1 <0>        -0.1213
      2 C2         -4.7714    0.2481   -0.2893 C.ar      1 <0>        -0.0633
      3 C3         -3.6026   -0.2936   -0.7925 C.ar      1 <0>        -0.1175
      4 C4         -2.4171    0.4081   -0.6960 C.ar      1 <0>        -0.0591
      5 C5         -2.3975    1.6544   -0.0832 C.ar      1 <0>         0.1023
      6 C6         -3.5728    2.1955    0.4211 C.ar      1 <0>        -0.0778
      7 C7         -4.7562    1.4908    0.3166 C.ar      1 <0>        -0.1171
      8 C8         -3.5570    3.5497    1.0820 C.3       1 <0>        -0.1182
      9 N1         -1.1974    2.3657    0.0206 N.pl3     1 <0>        -0.6157
     10 C9         -0.0697    1.7329    0.4008 C.2       1 <0>         0.5531
     11 S1         -0.1318    0.0939    0.8914 S.2       1 <0>        -0.5984
     12 N2          1.1076    2.3889    0.3895 N.pl3     1 <0>        -0.6885
     13 C10         2.3342    1.6993    0.7971 C.3       1 <0>         0.1359
     14 C11         3.5408    2.3746    0.1389 C.3       1 <0>        -0.1561
     15 C12         4.8279    1.7389    0.6885 C.3       1 <0>         0.0397
     16 H1          5.7143    2.0764    0.1514 H         1 <0>         0.1645
     17 C13         4.6587    0.2032    0.6309 C.3       1 <0>        -0.1468
     18 C14         4.0009   -0.1727    1.9749 C.3       1 <0>        -0.1488
     19 C15         3.8323    1.1700    2.7225 C.3       1 <0>         0.0350
     20 H2          3.9380    1.0571    3.8015 H         1 <0>         0.1563
     21 C16         2.4729    1.7643    2.3207 C.3       1 <0>        -0.1577
     22 C17         6.2054    1.7204    2.6979 C.3       1 <0>         0.0991
     23 C18         6.3096    2.2659    4.0988 C.2       1 <0>        -0.1074
     24 C19         5.9672    1.6138    5.2244 C.2       1 <0>        -0.1402
     25 C20         6.2265    2.4921    6.3016 C.2       1 <0>        -0.2187
     26 C21         6.7119    3.6283    5.7698 C.2       1 <0>         0.0148
     27 O1          6.7654    3.4835    4.4357 O.3       1 <0>        -0.1685
     28 H3         -6.5605   -0.2574   -1.3370 H         1 <0>         0.0755
     29 H4         -5.8557   -1.5874   -0.3869 H         1 <0>         0.0710
     30 H5         -6.7123   -0.2621    0.4365 H         1 <0>         0.0696
     31 H6         -3.6178   -1.2645   -1.2652 H         1 <0>         0.1299
     32 H7         -1.5056   -0.0135   -1.0932 H         1 <0>         0.1369
     33 H8         -5.6707    1.9112    0.7083 H         1 <0>         0.1297
     34 H9         -3.7378    4.3213    0.3337 H         1 <0>         0.0740
     35 H10        -4.3364    3.5917    1.8429 H         1 <0>         0.0773
     36 H11        -2.5855    3.7155    1.5476 H         1 <0>         0.0571
     37 H12        -1.1768    3.3143   -0.1811 H         1 <0>         0.4070
     38 H13         1.1427    3.3175    0.1115 H         1 <0>         0.4016
     39 H14         2.2858    0.6569    0.4823 H         1 <0>         0.1391
     40 H15         3.4953    2.2317   -0.9407 H         1 <0>         0.1223
     41 H16         3.5319    3.4405    0.3667 H         1 <0>         0.0939
     42 H17         4.0107   -0.0761   -0.1999 H         1 <0>         0.1156
     43 H18         5.6301   -0.2821    0.5351 H         1 <0>         0.1042
     44 H19         3.0294   -0.6369    1.8050 H         1 <0>         0.1256
     45 H20         4.6488   -0.8428    2.5400 H         1 <0>         0.1010
     46 H21         2.4171    2.8024    2.6485 H         1 <0>         0.0864
     47 H22         1.6716    1.1895    2.7851 H         1 <0>         0.1304
     48 H23         6.3341    0.6382    2.7188 H         1 <0>         0.1524
     49 H24         6.9813    2.1665    2.0756 H         1 <0>         0.1458
     50 H25         5.5709    0.6115    5.2923 H         1 <0>         0.1607
     51 H26         6.0655    2.2896    7.3501 H         1 <0>         0.1637
     52 H27         7.0115    4.5066    6.3223 H         1 <0>         0.2184
     53 N3          4.8535    2.0238    2.1259 N.4       1 <0>        -0.3944
     54 H28         4.6298    3.0116    2.2947 H         1 <0>         0.4257
@<TRIPOS>BOND
     1    1    2 1
     2    1   28 1
     3    1   29 1
     4    1   30 1
     5    2    7 ar
     6    2    3 ar
     7    3    4 ar
     8    3   31 1
     9    4    5 ar
    10    4   32 1
    11    5    6 ar
    12    5    9 1
    13    6    7 ar
    14    6    8 1
    15    7   33 1
    16    8   34 1
    17    8   35 1
    18    8   36 1
    19    9   10 1
    20    9   37 1
    21   10   11 2
    22   10   12 1
    23   12   13 1
    24   12   38 1
    25   13   21 1
    26   13   14 1
    27   13   39 1
    28   14   15 1
    29   14   40 1
    30   14   41 1
    31   15   16 1
    32   15   17 1
    33   15   53 1
    34   17   18 1
    35   17   42 1
    36   17   43 1
    37   18   19 1
    38   18   44 1
    39   18   45 1
    40   19   20 1
    41   19   21 1
    42   19   53 1
    43   21   46 1
    44   21   47 1
    45   22   23 1
    46   22   48 1
    47   22   49 1
    48   22   53 1
    49   23   27 1
    50   23   24 2
    51   24   25 1
    52   24   50 1
    53   25   26 2
    54   25   51 1
    55   26   27 1
    56   26   52 1
    57   53   54 1
@<TRIPOS>MOLECULE
ZINC17835405
   54    57     0     0     0
SMALL
USER_CHARGES

@<TRIPOS>ATOM
      1 C1         -0.0187    1.5258    0.0104 C.3       1 <0>        -0.1575
      2 C2          0.0021   -0.0041    0.0020 C.3       1 <0>         0.0512
      3 O1          0.6709   -0.4649   -1.1737 O.3       1 <0>        -0.2916
      4 C3          0.7768   -1.8110   -1.3363 C.ar      1 <0>         0.1362
      5 C4          0.2434   -2.6690   -0.3876 C.ar      1 <0>        -0.1761
      6 C5          0.3516   -4.0370   -0.5537 C.ar      1 <0>        -0.1181
      7 C6          0.9919   -4.5532   -1.6651 C.ar      1 <0>        -0.1114
      8 C7          1.5270   -3.7025   -2.6157 C.ar      1 <0>        -0.0234
      9 C8          1.4158   -2.3294   -2.4579 C.ar      1 <0>         0.1083
     10 O2          1.9356   -1.4912   -3.3946 O.3       1 <0>        -0.3148
     11 C9          3.2921   -1.0794   -3.2154 C.3       1 <0>         0.0342
     12 Cl1         2.3308   -4.3540   -4.0097 Cl        1 <0>        -0.0183
     13 C10        -0.2292   -4.9681    0.4792 C.3       1 <0>         0.0400
     14 N1         -1.6206   -5.2823    0.1280 N.4       1 <0>        -0.5032
     15 C11        -2.1867   -6.1898    1.1349 C.3       1 <0>         0.0643
     16 C12        -1.3670   -7.4811    1.1760 C.3       1 <0>        -0.1312
     17 C13        -1.9567   -8.4263    2.2247 C.3       1 <0>        -0.0764
     18 H1         -1.3728   -9.3462    2.2540 H         1 <0>         0.0980
     19 C14        -1.9170   -7.7530    3.5980 C.3       1 <0>        -0.1221
     20 C15        -2.7367   -6.4618    3.5569 C.3       1 <0>        -0.0763
     21 H2         -2.7083   -5.9821    4.5352 H         1 <0>         0.0975
     22 C16        -2.1470   -5.5165    2.5082 C.3       1 <0>        -0.1307
     23 C17        -4.1858   -6.7890    3.1911 C.3       1 <0>        -0.1500
     24 C18        -4.2256   -7.4623    1.8178 C.3       1 <0>         0.1491
     25 C19        -3.4059   -8.7536    1.8589 C.3       1 <0>        -0.1502
     26 C20        -3.6359   -6.5171    0.7691 C.3       1 <0>        -0.1203
     27 O3         -5.5790   -7.7680    1.4761 O.3       1 <0>        -0.5546
     28 H3          1.0039    1.9031    0.0027 H         1 <0>         0.0716
     29 H4         -0.5459    1.8868   -0.8726 H         1 <0>         0.0722
     30 H5         -0.5289    1.8773    0.9072 H         1 <0>         0.0859
     31 H6          0.5293   -0.3651    0.8851 H         1 <0>         0.0668
     32 H7         -1.0205   -0.3814    0.0098 H         1 <0>         0.0650
     33 H8         -0.2567   -2.2687    0.4820 H         1 <0>         0.1467
     34 H9          1.0747   -5.6226   -1.7912 H         1 <0>         0.1489
     35 H10         3.5807   -0.4148   -4.0298 H         1 <0>         0.1074
     36 H11         3.3898   -0.5537   -2.2655 H         1 <0>         0.0534
     37 H12         3.9407   -1.9555   -3.2142 H         1 <0>         0.0524
     38 H13         0.3548   -5.8880    0.5085 H         1 <0>         0.1460
     39 H14        -0.2009   -4.4884    1.4576 H         1 <0>         0.1440
     40 H15        -2.1611   -4.4307    0.1009 H         1 <0>         0.4269
     41 H16        -1.3954   -7.9607    0.1976 H         1 <0>         0.0914
     42 H17        -0.3347   -7.2479    1.4366 H         1 <0>         0.0924
     43 H18        -2.3371   -8.4264    4.3451 H         1 <0>         0.0821
     44 H19        -0.8846   -7.5198    3.8586 H         1 <0>         0.0756
     45 H20        -1.1146   -5.2834    2.7688 H         1 <0>         0.0919
     46 H21        -2.7309   -4.5966    2.4789 H         1 <0>         0.0900
     47 H22        -4.6059   -7.4624    3.9382 H         1 <0>         0.0829
     48 H23        -4.7698   -5.8691    3.1618 H         1 <0>         0.0798
     49 H24        -3.4342   -9.2332    0.8805 H         1 <0>         0.0803
     50 H25        -3.8260   -9.4270    2.6060 H         1 <0>         0.0829
     51 H26        -4.2198   -5.5972    0.7398 H         1 <0>         0.0947
     52 H27        -3.6642   -6.9968   -0.2093 H         1 <0>         0.0955
     53 H28        -6.0169   -8.3642    2.0990 H         1 <0>         0.3920
     54 H29        -1.6468   -5.7263   -0.7777 H         1 <0>         0.4285
@<TRIPOS>BOND
     1    1    2 1
     2    1   28 1
     3    1   29 1
     4    1   30 1
     5    2    3 1
     6    2   31 1
     7    2   32 1
     8    3    4 1
     9    4    9 ar
    10    4    5 ar
    11    5    6 ar
    12    5   33 1
    13    6    7 ar
    14    6   13 1
    15    7    8 ar
    16    7   34 1
    17    8    9 ar
    18    8   12 1
    19    9   10 1
    20   10   11 1
    21   11   35 1
    22   11   36 1
    23   11   37 1
    24   13   14 1
    25   13   38 1
    26   13   39 1
    27   14   15 1
    28   14   40 1
    29   14   54 1
    30   15   22 1
    31   15   26 1
    32   15   16 1
    33   16   17 1
    34   16   41 1
    35   16   42 1
    36   17   18 1
    37   17   25 1
    38   17   19 1
    39   19   20 1
    40   19   43 1
    41   19   44 1
    42   20   21 1
    43   20   22 1
    44   20   23 1
    45   22   45 1
    46   22   46 1
    47   23   24 1
    48   23   47 1
    49   23   48 1
    50   24   25 1
    51   24   26 1
    52   24   27 1
    53   25   49 1
    54   25   50 1
    55   26   51 1
    56   26   52 1
    57   27   53 1
@<TRIPOS>MOLECULE
ZINC43187269
   43    44     0     0     0
SMALL
USER_CHARGES

@<TRIPOS>ATOM
      1 C1         -0.0175    1.4657    0.0207 C.3       1 <0>        -0.0476
      2 N1          0.0014   -0.0032    0.0134 N.4       1 <0>        -0.3866
      3 C2          0.6715   -0.4763   -1.2038 C.3       1 <0>        -0.0017
      4 C3          0.6225   -2.0048   -1.2563 C.3       1 <0>        -0.1570
      5 C4          1.3334   -2.5754   -0.0257 C.3       1 <0>         0.1538
      6 C5          0.6730   -2.0166    1.2380 C.3       1 <0>        -0.1636
      7 C6          0.7201   -0.4876    1.1980 C.3       1 <0>        -0.0035
      8 N2          1.2242   -4.0363   -0.0304 N.am      1 <0>        -0.7368
      9 C7          2.1431   -4.7828    0.6138 C.2       1 <0>         0.7094
     10 O1          3.0626   -4.2437    1.1988 O.2       1 <0>        -0.5629
     11 N3          2.0426   -6.1268    0.6095 N.am      1 <0>        -0.6781
     12 C8          3.0474   -6.9054    1.1949 C.ar      1 <0>         0.1565
     13 C9          3.3929   -8.1294    0.6373 C.ar      1 <0>        -0.0646
     14 C10         4.3852   -8.8953    1.2172 C.ar      1 <0>        -0.1605
     15 C11         5.0345   -8.4444    2.3517 C.ar      1 <0>        -0.0300
     16 C12         4.6925   -7.2263    2.9097 C.ar      1 <0>        -0.1634
     17 C13         3.7050   -6.4531    2.3313 C.ar      1 <0>        -0.0402
     18 C14         5.4024   -6.7390    4.1465 C.3       1 <0>         0.5135
     19 F1          6.5242   -5.9898    3.7756 F         1 <0>        -0.1690
     20 F2          4.5347   -5.9388    4.8974 F         1 <0>        -0.1728
     21 F3          5.8073   -7.8360    4.9145 F         1 <0>        -0.1692
     22 C15         4.7604  -10.2239    0.6130 C.3       1 <0>         0.5131
     23 F4          3.9719  -10.4612   -0.5180 F         1 <0>        -0.1731
     24 F5          6.1100  -10.2043    0.2449 F         1 <0>        -0.1684
     25 F6          4.5477  -11.2396    1.5513 F         1 <0>        -0.1680
     26 H1          1.0052    1.8423    0.0051 H         1 <0>         0.1234
     27 H2         -0.5510    1.8266   -0.8586 H         1 <0>         0.1252
     28 H3         -0.5208    1.8181    0.9210 H         1 <0>         0.1254
     29 H4          0.1664   -0.0668   -2.0786 H         1 <0>         0.1381
     30 H5          1.7104   -0.1466   -1.1977 H         1 <0>         0.1337
     31 H6         -0.4161   -2.3357   -1.2627 H         1 <0>         0.0957
     32 H7          1.1221   -2.3542   -2.1598 H         1 <0>         0.1209
     33 H8          2.3844   -2.2872   -0.0456 H         1 <0>         0.1096
     34 H9         -0.3645   -2.3477    1.2833 H         1 <0>         0.0914
     35 H10         1.2087   -2.3744    2.1172 H         1 <0>         0.1191
     36 H11         1.7580   -0.1576    1.1529 H         1 <0>         0.1332
     37 H12         0.2510   -0.0865    2.0963 H         1 <0>         0.1358
     38 H13         0.4906   -4.4664   -0.4971 H         1 <0>         0.4059
     39 H14         1.2739   -6.5544    0.2007 H         1 <0>         0.4163
     40 H15         2.8858   -8.4822   -0.2486 H         1 <0>         0.1545
     41 H16         5.8102   -9.0451    2.8033 H         1 <0>         0.1542
     42 H17         3.4416   -5.4996    2.7647 H         1 <0>         0.1632
     43 H18        -0.9456   -0.3508    0.0303 H         1 <0>         0.4248
@<TRIPOS>BOND
     1    1    2 1
     2    1   26 1
     3    1   27 1
     4    1   28 1
     5    2    7 1
     6    2    3 1
     7    2   43 1
     8    3    4 1
     9    3   29 1
    10    3   30 1
    11    4    5 1
    12    4   31 1
    13    4   32 1
    14    5    6 1
    15    5    8 1
    16    5   33 1
    17    6    7 1
    18    6   34 1
    19    6   35 1
    20    7   36 1
    21    7   37 1
    22    8    9 am
    23    8   38 1
    24    9   10 2
    25    9   11 am
    26   11   12 1
    27   11   39 1
    28   12   17 ar
    29   12   13 ar
    30   13   14 ar
    31   13   40 1
    32   14   15 ar
    33   14   22 1
    34   15   16 ar
    35   15   41 1
    36   16   17 ar
    37   16   18 1
    38   17   42 1
    39   18   19 1
    40   18   20 1
    41   18   21 1
    42   22   23 1
    43   22   24 1
    44   22   25 1
@<TRIPOS>MOLECULE
ZINC50586115
   37    38     0     0     0
SMALL
USER_CHARGES

@<TRIPOS>ATOM
      1 C1         -0.0187    1.5258    0.0104 C.3       1 <0>        -0.1717
      2 C2          0.0021   -0.0041    0.0020 C.3       1 <0>        -0.1458
      3 C3          0.7421   -0.5109    1.2415 C.3       1 <0>         0.0179
      4 H1          0.2852   -0.0874    2.1360 H         1 <0>         0.1589
      5 C4          0.6554   -2.0374    1.2986 C.3       1 <0>         0.2563
      6 H2          1.1123   -2.4609    0.4042 H         1 <0>         0.1434
      7 C5         -0.7905   -2.4561    1.3705 C.2       1 <0>        -0.2206
      8 C6         -1.4970   -3.2352    0.5154 C.2       1 <0>        -0.0814
      9 C7         -2.8290   -3.4897    0.7851 C.2       1 <0>        -0.1443
     10 C8         -3.3887   -2.9522    1.8970 C.2       1 <0>        -0.1147
     11 S1         -2.0149   -2.0611    2.6082 S.3       1 <0>         0.1574
     12 Br1        -3.8547   -4.5704   -0.3794 Br        1 <0>        -0.0122
     13 N1          1.3640   -2.5227    2.4855 N.pl3     1 <0>        -0.4041
     14 C9          2.4238   -3.3596    2.4912 C.2       1 <0>         0.0944
     15 C10         2.7826   -3.5615    3.7808 C.2       1 <0>        -0.1702
     16 C11         1.9124   -2.8229    4.5903 C.2       1 <0>         0.1224
     17 N2          1.0656   -2.1958    3.8145 N.2       1 <0>        -0.2796
     18 C12         1.9484   -2.7562    6.0954 C.3       1 <0>        -0.0883
     19 Cl1         4.0906   -4.5606    4.3327 Cl        1 <0>        -0.0133
     20 C13         3.0875   -3.9614    1.2794 C.3       1 <0>        -0.1085
     21 N3          2.1515   -0.1027    1.1714 N.4       1 <0>        -0.6351
     22 H3          1.0039    1.9031    0.0027 H         1 <0>         0.0542
     23 H4         -0.5459    1.8868   -0.8726 H         1 <0>         0.0900
     24 H5         -0.5289    1.8773    0.9072 H         1 <0>         0.0758
     25 H6         -1.0205   -0.3814    0.0098 H         1 <0>         0.1194
     26 H7          0.5123   -0.3556   -0.8948 H         1 <0>         0.0967
     27 H8         -1.0266   -3.6507   -0.3636 H         1 <0>         0.1477
     28 H9         -4.4016   -3.0434    2.2605 H         1 <0>         0.2051
     29 H10         2.5933   -1.9347    6.4073 H         1 <0>         0.0900
     30 H11         0.9403   -2.5914    6.4759 H         1 <0>         0.0856
     31 H12         2.3375   -3.6942    6.4914 H         1 <0>         0.0900
     32 H13         3.8837   -3.3011    0.9357 H         1 <0>         0.0895
     33 H14         3.5080   -4.9326    1.5402 H         1 <0>         0.1035
     34 H15         2.3507   -4.0858    0.4858 H         1 <0>         0.0797
     35 H16         2.2086    0.9039    1.1338 H         1 <0>         0.4425
     36 H17         2.6395   -0.4370    1.9889 H         1 <0>         0.4361
     37 H18         2.5744   -0.4948    0.3435 H         1 <0>         0.4335
@<TRIPOS>BOND
     1    1    2 1
     2    1   22 1
     3    1   23 1
     4    1   24 1
     5    2    3 1
     6    2   25 1
     7    2   26 1
     8    3    4 1
     9    3    5 1
    10    3   21 1
    11    5    6 1
    12    5    7 1
    13    5   13 1
    14    7   11 1
    15    7    8 2
    16    8    9 1
    17    8   27 1
    18    9   10 2
    19    9   12 1
    20   10   11 1
    21   10   28 1
    22   13   17 1
    23   13   14 1
    24   14   15 2
    25   14   20 1
    26   15   16 1
    27   15   19 1
    28   16   17 2
    29   16   18 1
    30   18   29 1
    31   18   30 1
    32   18   31 1
    33   20   32 1
    34   20   33 1
    35   20   34 1
    36   21   35 1
    37   21   36 1
    38   21   37 1
@<TRIPOS>MOLECULE
ZINC67579560
   50    51     0     0     0
SMALL
USER_CHARGES

@<TRIPOS>ATOM
      1 C1         -0.3130    0.1031    5.2292 C.3       1 <0>        -0.1462
      2 C2          0.8309    0.5056    4.2962 C.3       1 <0>        -0.0156
      3 H1          1.7539    0.5924    4.8694 H         1 <0>         0.0921
      4 C3          1.0000   -0.5432    3.2274 C.ar      1 <0>        -0.0475
      5 C4         -0.0443   -0.8264    2.3659 C.ar      1 <0>        -0.1088
      6 C5          0.1070   -1.7879    1.3841 C.ar      1 <0>        -0.0944
      7 C6          1.3024   -2.4690    1.2606 C.ar      1 <0>        -0.1383
      8 C7          2.3527   -2.1871    2.1238 C.ar      1 <0>         0.1534
      9 C8          2.1995   -1.2166    3.1055 C.ar      1 <0>        -0.1029
     10 N1          3.5650   -2.8753    2.0013 N.am      1 <0>        -0.6771
     11 C9          4.2992   -3.1475    3.0983 C.2       1 <0>         0.7100
     12 O1          3.8672   -2.8756    4.2018 O.2       1 <0>        -0.5622
     13 N2          5.5123   -3.7211    2.9720 N.am      1 <0>        -0.7390
     14 C10         6.3103   -4.0170    4.1644 C.3       1 <0>         0.1260
     15 C11         7.6755   -4.5634    3.7418 C.3       1 <0>         0.0796
     16 H2          8.1530   -3.8601    3.0596 H         1 <0>         0.1496
     17 C12         7.4933   -5.8896    3.0496 C.2       1 <0>        -0.1620
     18 C13         7.5199   -5.9702    1.6699 C.2       1 <0>        -0.1665
     19 C14         7.3527   -7.1785    1.0788 C.2       1 <0>        -0.1449
     20 S1          7.1494   -8.2545    2.4888 S.3       1 <0>         0.1423
     21 C15         7.3065   -7.0220    3.7707 C.2       1 <0>        -0.1968
     22 N3          8.5202   -4.7432    4.9301 N.4       1 <0>        -0.3797
     23 C16         9.8378   -5.2488    4.5223 C.3       1 <0>        -0.0478
     24 C17         8.6811   -3.4543    5.6161 C.3       1 <0>        -0.0562
     25 S2          0.4472    2.1009    3.5226 S.3       1 <0>        -0.2490
     26 C18         0.4265    3.2682    4.9109 C.3       1 <0>        -0.1252
     27 H3         -0.0824   -0.8555    5.6941 H         1 <0>         0.0678
     28 H4         -0.4353    0.8617    6.0023 H         1 <0>         0.0616
     29 H5         -1.2360    0.0163    4.6560 H         1 <0>         0.0728
     30 H6         -0.9800   -0.2955    2.4607 H         1 <0>         0.1318
     31 H7         -0.7105   -2.0070    0.7131 H         1 <0>         0.1331
     32 H8          1.4198   -3.2203    0.4936 H         1 <0>         0.1272
     33 H9          3.0162   -0.9916    3.7754 H         1 <0>         0.1337
     34 H10         3.8770   -3.1564    1.1269 H         1 <0>         0.4092
     35 H11         5.8569   -3.9380    2.0917 H         1 <0>         0.4031
     36 H12         6.4480   -3.1048    4.7450 H         1 <0>         0.0960
     37 H13         5.7938   -4.7600    4.7721 H         1 <0>         0.0894
     38 H14         7.6712   -5.0837    1.0719 H         1 <0>         0.1443
     39 H15         7.3444   -7.4260    0.0275 H         1 <0>         0.1995
     40 H16         7.2629   -7.1462    4.8427 H         1 <0>         0.1885
     41 H17        10.3081   -4.5340    3.8469 H         1 <0>         0.1246
     42 H18        10.4646   -5.3822    5.4040 H         1 <0>         0.1294
     43 H19         9.7184   -6.2052    4.0132 H         1 <0>         0.1242
     44 H20         9.3958   -3.5636    6.4318 H         1 <0>         0.1320
     45 H21         9.0476   -2.7098    4.9093 H         1 <0>         0.1264
     46 H22         7.7194   -3.1330    6.0161 H         1 <0>         0.1284
     47 H23         0.2013    4.2685    4.5412 H         1 <0>         0.1046
     48 H24        -0.3362    2.9658    5.6285 H         1 <0>         0.0790
     49 H25         1.4020    3.2717    5.3973 H         1 <0>         0.0756
     50 H26         8.0848   -5.4049    5.5552 H         1 <0>         0.4247
@<TRIPOS>BOND
     1    1    2 1
     2    1   27 1
     3    1   28 1
     4    1   29 1
     5    2    3 1
     6    2    4 1
     7    2   25 1
     8    4    9 ar
     9    4    5 ar
    10    5    6 ar
    11    5   30 1
    12    6    7 ar
    13    6   31 1
    14    7    8 ar
    15    7   32 1
    16    8    9 ar
    17    8   10 1
    18    9   33 1
    19   10   11 am
    20   10   34 1
    21   11   12 2
    22   11   13 am
    23   13   14 1
    24   13   35 1
    25   14   15 1
    26   14   36 1
    27   14   37 1
    28   15   16 1
    29   15   17 1
    30   15   22 1
    31   17   21 2
    32   17   18 1
    33   18   19 2
    34   18   38 1
    35   19   20 1
    36   19   39 1
    37   20   21 1
    38   21   40 1
    39   22   23 1
    40   22   24 1
    41   22   50 1
    42   23   41 1
    43   23   42 1
    44   23   43 1
    45   24   44 1
    46   24   45 1
    47   24   46 1
    48   25   26 1
    49   26   47 1
    50   26   48 1
    51   26   49 1
@<TRIPOS>MOLECULE
ZINC16449375
   42    43     0     0     0
SMALL
USER_CHARGES
2-[[(1R,2S)-2-hydroxy-1-(hydroxymethyl)-2-(4-nitrophenyl)ethyl]sulfamoyl]benzoic acid
@<TRIPOS>ATOM
      1 C1          5.8088    2.8469   -5.4323 C.ar      1 <0>        -0.0845
      2 C2          4.8439    1.9124   -5.7652 C.ar      1 <0>        -0.1480
      3 C3          4.6532    0.7938   -4.9738 C.ar      1 <0>        -0.0456
      4 C4          5.4171    0.6087   -3.8399 C.ar      1 <0>        -0.6584
      5 C5          6.3923    1.5475   -3.4983 C.ar      1 <0>        -0.0116
      6 C6          6.5834    2.6714   -4.3048 C.ar      1 <0>        -0.1048
      7 C7          7.2186    1.3526   -2.2893 C.2       1 <0>         0.4811
      8 O1          6.9718    0.4409   -1.5255 O.co2     1 <0>        -0.5929
      9 S1          5.1676   -0.8130   -2.8294 S.o2      1 <0>         2.7140
     10 O2          6.4445   -1.4079   -2.6428 O.2       1 <0>        -0.9326
     11 O3          4.0712   -1.5223   -3.3899 O.2       1 <0>        -0.9943
     12 N1          4.6737   -0.2763   -1.3426 N.pl3     1 <0>        -1.0768
     13 C8          3.4036    0.4412   -1.2077 C.3       1 <0>         0.1294
     14 H1          2.7534    0.1898   -2.0456 H         1 <0>         0.0978
     15 C9          3.6675    1.9483   -1.2013 C.3       1 <0>         0.0669
     16 O4          4.3983    2.2990   -0.0245 O.3       1 <0>        -0.5525
     17 C10         2.7260    0.0366    0.1031 C.3       1 <0>         0.1471
     18 H2          3.4003    0.2335    0.9365 H         1 <0>         0.1346
     19 C11         2.3921   -1.4324    0.0633 C.ar      1 <0>        -0.0561
     20 C12         3.2106   -2.3448    0.7025 C.ar      1 <0>        -0.1030
     21 C13         2.9072   -3.6928    0.6616 C.ar      1 <0>        -0.0501
     22 C14         1.7798   -4.1275   -0.0100 C.ar      1 <0>        -0.0485
     23 C15         0.9611   -3.2150   -0.6488 C.ar      1 <0>        -0.0474
     24 C16         1.2671   -1.8675   -0.6119 C.ar      1 <0>        -0.1116
     25 N2          1.4518   -5.5703   -0.0490 N.pl3     1 <0>         0.0314
     26 O5          0.4606   -5.9537   -0.6439 O.2       1 <0>        -0.1646
     27 O6          2.1732   -6.3743    0.5139 O.3       1 <0>        -0.1625
     28 O7          1.5258    0.7935    0.2723 O.3       1 <0>        -0.5392
     29 H3          5.9558    3.7155   -6.0572 H         1 <0>         0.1244
     30 H4          4.2401    2.0546   -6.6492 H         1 <0>         0.1243
     31 H5          3.9017    0.0658   -5.2419 H         1 <0>         0.1354
     32 H6          7.3363    3.4013   -4.0464 H         1 <0>         0.1386
     33 H7          5.2253   -0.4371   -0.5611 H         1 <0>         0.4314
     34 H8          4.2475    2.2193   -2.0835 H         1 <0>         0.0518
     35 H9          2.7180    2.4835   -1.2123 H         1 <0>         0.0525
     36 H10         4.6013    3.2418    0.0461 H         1 <0>         0.3781
     37 H11         4.0895   -2.0049    1.2301 H         1 <0>         0.1535
     38 H12         3.5491   -4.4061    1.1572 H         1 <0>         0.1560
     39 H13         0.0822   -3.5549   -1.1763 H         1 <0>         0.1539
     40 H14         0.6275   -1.1546   -1.1110 H         1 <0>         0.1449
     41 H15         0.8540    0.6214   -0.4017 H         1 <0>         0.3710
     42 O8          8.2457    2.1859   -2.0340 O.co2     1 <0>        -0.7331
@<TRIPOS>BOND
     1    1    6 ar
     2    1    2 ar
     3    1   29 1
     4    2    3 ar
     5    2   30 1
     6    3    4 ar
     7    3   31 1
     8    4    5 ar
     9    4    9 1
    10    5    6 ar
    11    5    7 1
    12    6   32 1
    13    7    8 2
    14    7   42 1
    15    9   10 2
    16    9   11 2
    17    9   12 1
    18   12   13 1
    19   12   33 1
    20   13   14 1
    21   13   15 1
    22   13   17 1
    23   15   16 1
    24   15   34 1
    25   15   35 1
    26   16   36 1
    27   17   18 1
    28   17   19 1
    29   17   28 1
    30   19   24 ar
    31   19   20 ar
    32   20   21 ar
    33   20   37 1
    34   21   22 ar
    35   21   38 1
    36   22   23 ar
    37   22   25 1
    38   23   24 ar
    39   23   39 1
    40   24   40 1
    41   25   26 2
    42   25   27 1
    43   28   41 1
@<TRIPOS>MOLECULE
ZINC38793644
   40    42     0     0     0
SMALL
USER_CHARGES

@<TRIPOS>ATOM
      1 C1         -0.0187    1.5258    0.0104 C.3       1 <0>        -0.1679
      2 C2          0.0021   -0.0041    0.0020 C.3       1 <0>         0.1565
      3 H1         -1.0205   -0.3814    0.0098 H         1 <0>         0.1002
      4 C3          0.7182   -0.4975   -1.2568 C.3       1 <0>         0.1896
      5 H2          1.7479   -0.1405   -1.2772 H         1 <0>         0.1122
      6 N1         -0.0110   -0.0667   -2.4785 N.3       1 <0>        -0.4875
      7 N2          0.3940   -1.0517   -3.4882 N.3       1 <0>        -0.4929
      8 C4          0.8388   -2.2427   -2.7350 C.3       1 <0>        -0.2708
      9 H3          1.8874   -2.4487   -2.9494 H         1 <0>         0.1240
     10 O1          0.6765   -1.9400   -1.3354 O.3       1 <0>        -0.3490
     11 S1         -0.1784   -3.6758   -3.1846 S.o2      1 <0>         2.4354
     12 O2         -0.1068   -3.8538   -4.5926 O.2       1 <0>        -0.9221
     13 O3          0.1690   -4.7586   -2.3325 O.2       1 <0>        -0.9105
     14 C5         -1.8544   -3.1266   -2.7601 C.3       1 <0>        -0.6378
     15 N3          0.7106   -0.4894    1.1889 N.pl3     1 <0>        -1.1116
     16 S2         -0.1388   -0.9023    2.5492 S.o2      1 <0>         2.7046
     17 O4          0.8143   -1.3537    3.5016 O.2       1 <0>        -0.9643
     18 O5         -1.0297    0.1727    2.8136 O.2       1 <0>        -0.9618
     19 C6         -1.1374   -2.2943    2.1373 C.ar      1 <0>        -0.7255
     20 C7         -2.4166   -2.1004    1.6385 C.ar      1 <0>        -0.0255
     21 C8         -3.2082   -3.1794    1.3119 C.ar      1 <0>        -0.1456
     22 C9         -2.7185   -4.4746    1.4846 C.ar      1 <0>         0.1527
     23 C10        -1.4238   -4.6663    1.9895 C.ar      1 <0>        -0.0554
     24 C11        -0.6389   -3.5697    2.3080 C.ar      1 <0>         0.0347
     25 O6         -1.2310   -6.0040    2.0451 O.3       1 <0>        -0.2687
     26 C12        -2.3457   -6.6074    1.5989 C.2       1 <0>         0.5271
     27 O7         -2.5196   -7.9452    1.5114 O.3       1 <0>        -0.6270
     28 N4         -3.2370   -5.7138    1.2627 N.2       1 <0>        -0.6057
     29 H4          1.0039    1.9031    0.0027 H         1 <0>         0.0659
     30 H5         -0.5459    1.8868   -0.8726 H         1 <0>         0.0785
     31 H6         -0.5289    1.8773    0.9072 H         1 <0>         0.0841
     32 H7         -1.0089   -0.0896   -2.3309 H         1 <0>         0.3687
     33 H8          1.1378   -0.6913   -4.0669 H         1 <0>         0.3790
     34 H9         -2.1024   -2.2364   -3.3383 H         1 <0>         0.1337
     35 H10        -2.5659   -3.9195   -2.9907 H         1 <0>         0.1368
     36 H11        -1.9020   -2.8938   -1.6964 H         1 <0>         0.1339
     37 H12         1.6773   -0.5688    1.1779 H         1 <0>         0.4184
     38 H13        -2.7946   -1.0975    1.5056 H         1 <0>         0.1329
     39 H14        -4.2041   -3.0235    0.9240 H         1 <0>         0.1284
     40 H15         0.3598   -3.7130    2.6932 H         1 <0>         0.1325
@<TRIPOS>BOND
     1    1    2 1
     2    1   29 1
     3    1   30 1
     4    1   31 1
     5    2    3 1
     6    2    4 1
     7    2   15 1
     8    4    5 1
     9    4   10 1
    10    4    6 1
    11    6    7 1
    12    6   32 1
    13    7    8 1
    14    7   33 1
    15    8    9 1
    16    8   10 1
    17    8   11 1
    18   11   12 2
    19   11   13 2
    20   11   14 1
    21   14   34 1
    22   14   35 1
    23   14   36 1
    24   15   16 1
    25   15   37 1
    26   16   17 2
    27   16   18 2
    28   16   19 1
    29   19   24 ar
    30   19   20 ar
    31   20   21 ar
    32   20   38 1
    33   21   22 ar
    34   21   39 1
    35   22   28 1
    36   22   23 ar
    37   23   24 ar
    38   23   25 1
    39   24   40 1
    40   25   26 1
    41   26   27 1
    42   26   28 2
@<TRIPOS>MOLECULE
ZINC44830109
   42    45     0     0     0
SMALL
USER_CHARGES

@<TRIPOS>ATOM
      1 C1         -0.2022    1.5142    0.3372 C.2       1 <0>         0.2227
      2 N1          0.9911    2.0304    0.2936 N.2       1 <0>        -0.4544
      3 C2          1.8973    1.0522    0.0487 C.ar      1 <0>        -0.1563
      4 C3          3.2947    1.0173   -0.1016 C.ar      1 <0>         0.5465
      5 N2          3.8787   -0.1509   -0.3429 N.ar      1 <0>        -0.6219
      6 C4          3.1665   -1.2664   -0.4416 C.ar      1 <0>         0.6366
      7 N3          1.8505   -1.2782   -0.3069 N.ar      1 <0>        -0.5958
      8 C5          1.1853   -0.1530   -0.0639 C.ar      1 <0>         0.3623
      9 N4         -0.1354    0.1684    0.1223 N.pl3     1 <0>        -0.4730
     10 C6         -1.2663   -0.7624    0.0955 C.3       1 <0>         0.1639
     11 H1         -2.0202   -0.4223   -0.6145 H         1 <0>         0.1016
     12 C7         -1.8810   -0.9041    1.5073 C.3       1 <0>        -0.1325
     13 C8         -1.1389   -2.1517    2.0402 C.3       1 <0>        -0.0745
     14 H2         -1.8067   -2.7583    2.6520 H         1 <0>         0.0956
     15 C9         -0.7254   -2.9111    0.8010 C.2       1 <0>        -0.0953
     16 C10        -0.7953   -2.1528   -0.2625 C.2       1 <0>        -0.1717
     17 C11         0.0916   -1.7353    2.8484 C.3       1 <0>         0.0995
     18 O1          0.7011   -2.8947    3.4195 O.3       1 <0>        -0.7779
     19 S1          1.9416   -2.5967    4.2496 S.o2      1 <0>         2.7703
     20 O2          2.6311   -3.8621    4.4480 O.2       1 <0>        -1.0714
     21 O3          2.7445   -1.6543    3.4858 O.2       1 <0>        -1.0883
     22 O4          1.4820   -2.0255    5.5060 O.3       1 <0>        -1.0973
     23 N5          3.8236   -2.4592   -0.6947 N.pl3     1 <0>        -0.8167
     24 N6          4.0454    2.1752   -0.0008 N.pl3     1 <0>        -0.6693
     25 C12         5.5007    2.1208   -0.1601 C.3       1 <0>         0.0956
     26 C13         6.3500    2.9229    0.8279 C.3       1 <0>        -0.1960
     27 C14         6.2092    3.3965   -0.6201 C.3       1 <0>        -0.1949
     28 H3         -1.1109    2.0682    0.5209 H         1 <0>         0.2144
     29 H4         -1.6630   -0.0284    2.1187 H         1 <0>         0.0861
     30 H5         -2.9549   -1.0821    1.4505 H         1 <0>         0.0988
     31 H6         -0.4132   -3.9449    0.7938 H         1 <0>         0.1337
     32 H7         -0.5501   -2.4759   -1.2634 H         1 <0>         0.1330
     33 H8          0.8047   -1.2354    2.1929 H         1 <0>         0.0832
     34 H9         -0.2099   -1.0540    3.6441 H         1 <0>         0.0657
     35 H10         4.7882   -2.4694   -0.7967 H         1 <0>         0.4122
     36 H11         3.3192   -3.2843   -0.7701 H         1 <0>         0.4130
     37 H12         3.6082    3.0229    0.1753 H         1 <0>         0.4166
     38 H13         5.9000    1.1690   -0.5106 H         1 <0>         0.1427
     39 H14         5.8260    3.4911    1.5964 H         1 <0>         0.0964
     40 H15         7.3083    2.4989    1.1278 H         1 <0>         0.1017
     41 H16         7.0748    3.2840   -1.2729 H         1 <0>         0.1010
     42 H17         5.5925    4.2762   -0.8042 H         1 <0>         0.0942
@<TRIPOS>BOND
     1    1    9 1
     2    1    2 2
     3    1   28 1
     4    2    3 1
     5    3    8 ar
     6    3    4 ar
     7    4    5 ar
     8    4   24 1
     9    5    6 ar
    10    6    7 ar
    11    6   23 1
    12    7    8 ar
    13    8    9 1
    14    9   10 1
    15   10   11 1
    16   10   16 1
    17   10   12 1
    18   12   13 1
    19   12   29 1
    20   12   30 1
    21   13   14 1
    22   13   15 1
    23   13   17 1
    24   15   16 2
    25   15   31 1
    26   16   32 1
    27   17   18 1
    28   17   33 1
    29   17   34 1
    30   18   19 1
    31   19   20 2
    32   19   21 2
    33   19   22 1
    34   23   35 1
    35   23   36 1
    36   24   25 1
    37   24   37 1
    38   25   27 1
    39   25   26 1
    40   25   38 1
    41   26   27 1
    42   26   39 1
    43   26   40 1
    44   27   41 1
    45   27   42 1
@<TRIPOS>MOLECULE
ZINC20502776
   33    32     0     0     0
SMALL
USER_CHARGES

@<TRIPOS>ATOM
      1 C1         -0.4768    1.1675    0.3576 C.3       1 <0>         0.0415
      2 C2         -0.6892   -0.1768   -0.3413 C.3       1 <0>        -1.3140
      3 P1          0.1744   -1.4871    0.5864 P.3       1 <0>         2.2406
      4 O1         -0.3452   -2.8689    0.1305 O.2       1 <0>        -1.0694
      5 O2          1.6929   -1.3935    0.3171 O.3       1 <0>        -1.0882
      6 O3         -0.1037   -1.3021    2.1613 O.3       1 <0>        -0.8880
      7 P2         -2.4719   -0.5527   -0.4067 P.3       1 <0>         2.2924
      8 O4         -3.0362   -0.6242    1.0298 O.2       1 <0>        -1.0932
      9 O5         -3.2038    0.5578   -1.1929 O.3       1 <0>        -1.1082
     10 O6         -2.6954   -1.9673   -1.1422 O.3       1 <0>        -0.8761
     11 N1          0.9435    1.5364    0.2884 N.4       1 <0>        -0.5107
     12 C3          1.1607    2.7882    1.0257 C.3       1 <0>         0.0414
     13 C4          2.6562    3.1100    1.0548 C.3       1 <0>        -1.3133
     14 P3          3.2444    3.4194   -0.6427 P.3       1 <0>         2.2400
     15 O7          4.6310    4.0990   -0.5915 O.2       1 <0>        -1.0698
     16 O8          3.3559    2.0783   -1.4017 O.3       1 <0>        -1.0891
     17 O9          2.2027    4.3821   -1.4045 O.3       1 <0>        -0.8882
     18 P4          2.9389    4.5936    2.0758 P.3       1 <0>         2.2918
     19 O10         2.1667    5.7883    1.4729 O.2       1 <0>        -1.0934
     20 O11         2.4404    4.3313    3.5144 O.3       1 <0>        -1.1076
     21 O12         4.5126    4.9321    2.1064 O.3       1 <0>        -0.8762
     22 H1         -1.0754    1.9326   -0.1367 H         1 <0>         0.1241
     23 H2         -0.7807    1.0865    1.4013 H         1 <0>         0.1308
     24 H3         -0.2911   -0.1264   -1.3547 H         1 <0>         0.1300
     25 H4          0.3262   -1.9662    2.7174 H         1 <0>         0.4083
     26 H5         -3.6229   -2.2317   -1.2128 H         1 <0>         0.3999
     27 H6          1.5018    0.8030    0.6990 H         1 <0>         0.4276
     28 H7          0.6243    3.5985    0.5319 H         1 <0>         0.1303
     29 H8          0.7930    2.6777    2.0458 H         1 <0>         0.1247
     30 H9          3.2010    2.2671    1.4801 H         1 <0>         0.1307
     31 H10         2.4526    4.5896   -2.3153 H         1 <0>         0.4078
     32 H11         4.7370    5.7117    2.6327 H         1 <0>         0.3999
     33 H12         1.2114    1.6632   -0.6760 H         1 <0>         0.4235
@<TRIPOS>BOND
     1    1    2 1
     2    1   11 1
     3    1   22 1
     4    1   23 1
     5    2    3 1
     6    2    7 1
     7    2   24 1
     8    3    4 2
     9    3    5 1
    10    3    6 1
    11    6   25 1
    12    7    8 2
    13    7    9 1
    14    7   10 1
    15   10   26 1
    16   11   12 1
    17   11   27 1
    18   11   33 1
    19   12   13 1
    20   12   28 1
    21   12   29 1
    22   13   14 1
    23   13   18 1
    24   13   30 1
    25   14   15 2
    26   14   16 1
    27   14   17 1
    28   17   31 1
    29   18   19 2
    30   18   20 1
    31   18   21 1
    32   21   32 1
@<TRIPOS>MOLECULE
ZINC65743101
   41    43     0     0     0
SMALL
USER_CHARGES

@<TRIPOS>ATOM
      1 C1         -0.0175    1.4390    0.0100 C.3       1 <0>         0.0239
      2 C2          1.4700    1.8538   -0.0020 C.3       1 <0>         0.0540
      3 H1          1.8280    2.0196    1.0141 H         1 <0>         0.0948
      4 C3          2.1936    0.6490   -0.6397 C.3       1 <0>         0.0564
      5 H2          2.7092    0.9307   -1.5579 H         1 <0>         0.1288
      6 C4          1.0555   -0.3736   -0.9118 C.3       1 <0>         0.0595
      7 H3          0.7423   -0.4068   -1.9553 H         1 <0>         0.1224
      8 O1          0.0021   -0.0041    0.0020 O.3       1 <0>        -0.3485
      9 C5          1.6816   -1.7038   -0.4164 C.3       1 <0>         0.0188
     10 H4          2.2872   -2.1661   -1.1960 H         1 <0>         0.1410
     11 C6          2.5660   -1.2051    0.7530 C.3       1 <0>         0.0338
     12 O2          3.0927    0.0746    0.3124 O.3       1 <0>        -0.3464
     13 O3          0.6738   -2.6040    0.0485 O.3       1 <0>        -0.1863
     14 N1          1.0475   -3.9684   -0.0130 N.pl3     1 <0>         0.1246
     15 O4          2.1384   -4.2781   -0.4323 O.2       1 <0>        -0.1343
     16 O5          0.2758   -4.8237    0.3539 O.3       1 <0>        -0.0678
     17 O6          1.6553    3.0285   -0.7943 O.3       1 <0>        -0.3859
     18 C7          1.5645    4.2482   -0.0553 C.3       1 <0>         0.2029
     19 H5          2.2688    4.2228    0.7761 H         1 <0>         0.1031
     20 C8          1.8999    5.4271   -0.9727 C.3       1 <0>         0.1096
     21 H6          2.8960    5.2893   -1.3934 H         1 <0>         0.0680
     22 C9          0.8704    5.4919   -2.1050 C.3       1 <0>         0.1223
     23 H7          0.9338    4.5860   -2.7078 H         1 <0>         0.0818
     24 C10        -0.5318    5.6072   -1.4993 C.3       1 <0>         0.0671
     25 H8         -1.2749    5.5983   -2.2967 H         1 <0>         0.0611
     26 C11        -0.7733    4.4214   -0.5617 C.3       1 <0>        -0.0101
     27 H9         -0.7347    3.4933   -1.1319 H         1 <0>         0.0632
     28 O7          0.2365    4.4018    0.4496 O.3       1 <0>        -0.3362
     29 C12        -2.1283    4.5587    0.0836 C.2       1 <0>         0.5030
     30 O8         -3.1369    4.5049   -0.5993 O.co2     1 <0>        -0.6879
     31 O9         -2.2159    4.7237    1.2884 O.co2     1 <0>        -0.6631
     32 O10        -0.6354    6.8280   -0.7638 O.3       1 <0>        -0.5287
     33 O11         1.1337    6.6316   -2.9258 O.3       1 <0>        -0.5478
     34 O12         1.8627    6.6423   -0.2216 O.3       1 <0>        -0.5059
     35 H10        -0.5068    1.8069    0.9118 H         1 <0>         0.1187
     36 H11        -0.5239    1.8165   -0.8784 H         1 <0>         0.0821
     37 H12         1.9667   -1.0819    1.6551 H         1 <0>         0.0857
     38 H13         3.3839   -1.9027    0.9333 H         1 <0>         0.1078
     39 H14        -1.4992    6.9670   -0.3520 H         1 <0>         0.3744
     40 H15         0.5183    6.7349   -3.6646 H         1 <0>         0.3748
     41 H16         2.4878    6.6682    0.5157 H         1 <0>         0.3652
@<TRIPOS>BOND
     1    1    8 1
     2    1    2 1
     3    1   35 1
     4    1   36 1
     5    2    3 1
     6    2    4 1
     7    2   17 1
     8    4    5 1
     9    4   12 1
    10    4    6 1
    11    6    7 1
    12    6    8 1
    13    6    9 1
    14    9   10 1
    15    9   11 1
    16    9   13 1
    17   11   12 1
    18   11   37 1
    19   11   38 1
    20   13   14 1
    21   14   15 2
    22   14   16 1
    23   17   18 1
    24   18   19 1
    25   18   28 1
    26   18   20 1
    27   20   21 1
    28   20   22 1
    29   20   34 1
    30   22   23 1
    31   22   24 1
    32   22   33 1
    33   24   25 1
    34   24   26 1
    35   24   32 1
    36   26   27 1
    37   26   28 1
    38   26   29 1
    39   29   30 2
    40   29   31 1
    41   32   39 1
    42   33   40 1
    43   34   41 1
@<TRIPOS>MOLECULE
ZINC08214901
   95   100     0     0     0
SMALL
USER_CHARGES
[6-[[11-acetoxy-10-formyl-5,14-dihydroxy-13-methyl-17-(5-oxo-2H-furan-3-yl)-2,3,4,6,7,8,9,11,12,15,16,17-dodecahydro-1H-cyclopenta[a]phenanthren-3-yl]oxy]-5-hydroxy-4-methoxy-2-methyl-tetrahydropyran-3-yl] acetate
@<TRIPOS>ATOM
      1 C1         -2.5594    3.5722    2.3429 C.3       1 <0>        -0.1904
      2 C2         -1.3026    4.0345    1.6030 C.3       1 <0>         0.0897
      3 H1         -0.4187    3.6540    2.1149 H         1 <0>         0.1173
      4 C3         -1.3301    3.5022    0.1679 C.3       1 <0>         0.0672
      5 H2         -0.4156    3.7962   -0.3473 H         1 <0>         0.1145
      6 C4         -2.5419    4.0888   -0.5628 C.3       1 <0>         0.1015
      7 H3         -3.4581    3.7535   -0.0768 H         1 <0>         0.0870
      8 C5         -2.4644    5.6177   -0.5113 C.3       1 <0>         0.0779
      9 H4         -3.3506    6.0443   -0.9811 H         1 <0>         0.0758
     10 C6         -2.3930    6.0683    0.9501 C.3       1 <0>         0.2167
     11 H5         -3.3027    5.7656    1.4687 H         1 <0>         0.0607
     12 O1         -1.2618    5.4628    1.5792 O.3       1 <0>        -0.3697
     13 O2         -2.2641    7.4905    1.0045 O.3       1 <0>        -0.3308
     14 C7         -2.3008    8.0272    2.3284 C.3       1 <0>         0.0980
     15 H6         -2.9187    7.3905    2.9616 H         1 <0>         0.0583
     16 C8         -0.8808    8.0853    2.8947 C.3       1 <0>        -0.1280
     17 C9         -0.0133    8.9785    2.0064 C.3       1 <0>        -0.1091
     18 C10        -0.6053   10.3886    1.9673 C.3       1 <0>        -0.0956
     19 C11        -0.6438   10.9648    3.3845 C.3       1 <0>        -0.0594
     20 H7         -1.2443   10.3202    4.0263 H         1 <0>         0.1034
     21 C12        -1.2354   12.3729    3.3481 C.3       1 <0>        -0.1061
     22 H8         -0.6334   12.9861    2.6776 H         1 <0>         0.0817
     23 C13        -2.6554   12.3168    2.7802 C.3       1 <0>        -0.1151
     24 C14        -2.6167   11.7414    1.3633 C.3       1 <0>        -0.1601
     25 C15        -2.0256   10.3308    1.4017 C.3       1 <0>         0.1675
     26 C16        -2.8928    9.4375    2.2908 C.3       1 <0>        -0.1471
     27 O3         -1.9895    9.7937    0.0779 O.3       1 <0>        -0.5289
     28 C17        -1.2386   13.0135    4.7146 C.3       1 <0>         0.1485
     29 C18        -2.1727   12.2936    5.7046 C.3       1 <0>        -0.1482
     30 C19        -1.6905   12.7959    7.0850 C.3       1 <0>        -0.1150
     31 C20        -0.2322   13.2558    6.9007 C.3       1 <0>        -0.0327
     32 H9          0.4252   12.6891    7.5601 H         1 <0>         0.0969
     33 C21         0.1294   12.9750    5.4177 C.3       1 <0>        -0.0297
     34 C22         0.7234   11.5651    5.3698 C.3       1 <0>        -0.1245
     35 C23         0.7842   11.0526    3.9333 C.3       1 <0>         0.0869
     36 H10         1.3688   11.7414    3.3235 H         1 <0>         0.0922
     37 O4          1.3982    9.7370    3.9070 O.3       1 <0>        -0.3333
     38 C24         2.7298    9.6891    3.7451 C.2       1 <0>         0.4535
     39 O5          3.3615   10.7126    3.6292 O.2       1 <0>        -0.5061
     40 C25         3.4370    8.3589    3.7080 C.3       1 <0>        -0.1529
     41 C26         1.1037   14.0162    4.8632 C.3       1 <0>        -0.1423
     42 C27        -0.1122   14.7294    7.1927 C.2       1 <0>        -0.0584
     43 C28         0.7675   15.3063    8.0072 C.2       1 <0>        -0.2467
     44 C29         0.5534   16.7560    8.0115 C.2       1 <0>         0.4943
     45 O6          1.2031   17.5551    8.6567 O.2       1 <0>        -0.4612
     46 O7         -0.4726   17.0711    7.1989 O.3       1 <0>        -0.3289
     47 C30        -0.9721   15.8324    6.6212 C.3       1 <0>         0.0612
     48 O8         -1.6576   14.3730    4.5799 O.3       1 <0>        -0.5529
     49 C31         0.2490   11.2677    1.0908 C.2       1 <0>         0.3464
     50 O9         -0.2290   11.7937    0.1144 O.2       1 <0>        -0.4263
     51 O10        -1.2962    6.0604   -1.2051 O.3       1 <0>        -0.5355
     52 O11        -2.5349    3.6554   -1.9245 O.3       1 <0>        -0.3589
     53 C32        -3.8360    3.5365   -2.5033 C.3       1 <0>         0.0263
     54 O12        -1.4308    2.0539    0.1894 O.3       1 <0>        -0.3433
     55 C33        -0.2800    1.3632    0.2063 C.2       1 <0>         0.4584
     56 O13         0.7765    1.9493    0.1981 O.2       1 <0>        -0.5058
     57 C34        -0.3057   -0.1434    0.2291 C.3       1 <0>        -0.1469
     58 H11        -2.5908    2.4828    2.3601 H         1 <0>         0.0801
     59 H12        -2.5396    3.9513    3.3647 H         1 <0>         0.0723
     60 H13        -3.4431    3.9532    1.8311 H         1 <0>         0.0597
     61 H14        -0.9088    8.4950    3.9044 H         1 <0>         0.0688
     62 H15        -0.4591    7.0805    2.9220 H         1 <0>         0.0844
     63 H16         0.0150    8.5682    0.9970 H         1 <0>         0.0785
     64 H17         0.9982    9.0201    2.4103 H         1 <0>         0.0932
     65 H18        -3.2749   11.6816    3.4134 H         1 <0>         0.0713
     66 H19        -3.0755   13.3222    2.7525 H         1 <0>         0.0706
     67 H20        -1.9984   12.3773    0.7298 H         1 <0>         0.0954
     68 H21        -3.6285   11.7005    0.9600 H         1 <0>         0.0674
     69 H22        -3.9046    9.3962    1.8876 H         1 <0>         0.0728
     70 H23        -2.9204    9.8470    3.3005 H         1 <0>         0.0883
     71 H24        -2.8573    9.7279   -0.3436 H         1 <0>         0.3714
     72 H25        -2.0551   11.2128    5.6268 H         1 <0>         0.0799
     73 H26        -3.2107   12.5789    5.5335 H         1 <0>         0.0796
     74 H27        -1.7376   11.9869    7.8140 H         1 <0>         0.0756
     75 H28        -2.3070   13.6322    7.4143 H         1 <0>         0.0742
     76 H29         0.1034   10.8940    5.9643 H         1 <0>         0.0833
     77 H30         1.7305   11.5863    5.7861 H         1 <0>         0.0817
     78 H31         3.4821    8.0000    2.6798 H         1 <0>         0.1074
     79 H32         4.4485    8.4741    4.0974 H         1 <0>         0.1040
     80 H33         2.8917    7.6403    4.3200 H         1 <0>         0.0958
     81 H34         1.4025   13.7331    3.8540 H         1 <0>         0.0599
     82 H35         0.6175   14.9915    4.8380 H         1 <0>         0.0732
     83 H36         1.9850   14.0660    5.5026 H         1 <0>         0.0620
     84 H37         1.5243   14.7865    8.5759 H         1 <0>         0.1625
     85 H38        -0.8762   15.8589    5.5357 H         1 <0>         0.1472
     86 H39        -2.0142   15.6795    6.9019 H         1 <0>         0.1136
     87 H40        -2.5145   14.4791    4.1444 H         1 <0>         0.3783
     88 H41         1.2886   11.4274    1.3358 H         1 <0>         0.0824
     89 H42        -1.1808    7.0204   -1.2083 H         1 <0>         0.3896
     90 H43        -3.7447    3.2032   -3.5370 H         1 <0>         0.0921
     91 H44        -4.4203    2.8107   -1.9377 H         1 <0>         0.0453
     92 H45        -4.3354    4.5050   -2.4766 H         1 <0>         0.0421
     93 H46        -0.3126   -0.4911    1.2621 H         1 <0>         0.1052
     94 H47        -1.2014   -0.4993   -0.2800 H         1 <0>         0.0944
     95 H48         0.5783   -0.5296   -0.2783 H         1 <0>         0.1045
@<TRIPOS>BOND
     1    1    2 1
     2    1   58 1
     3    1   59 1
     4    1   60 1
     5    2    3 1
     6    2   12 1
     7    2    4 1
     8    4    5 1
     9    4    6 1
    10    4   54 1
    11    6    7 1
    12    6    8 1
    13    6   52 1
    14    8    9 1
    15    8   10 1
    16    8   51 1
    17   10   11 1
    18   10   12 1
    19   10   13 1
    20   13   14 1
    21   14   15 1
    22   14   26 1
    23   14   16 1
    24   16   17 1
    25   16   61 1
    26   16   62 1
    27   17   18 1
    28   17   63 1
    29   17   64 1
    30   18   25 1
    31   18   19 1
    32   18   49 1
    33   19   20 1
    34   19   35 1
    35   19   21 1
    36   21   22 1
    37   21   23 1
    38   21   28 1
    39   23   24 1
    40   23   65 1
    41   23   66 1
    42   24   25 1
    43   24   67 1
    44   24   68 1
    45   25   26 1
    46   25   27 1
    47   26   69 1
    48   26   70 1
    49   27   71 1
    50   28   33 1
    51   28   29 1
    52   28   48 1
    53   29   30 1
    54   29   72 1
    55   29   73 1
    56   30   31 1
    57   30   74 1
    58   30   75 1
    59   31   32 1
    60   31   33 1
    61   31   42 1
    62   33   34 1
    63   33   41 1
    64   34   35 1
    65   34   76 1
    66   34   77 1
    67   35   36 1
    68   35   37 1
    69   37   38 1
    70   38   39 2
    71   38   40 1
    72   40   78 1
    73   40   79 1
    74   40   80 1
    75   41   81 1
    76   41   82 1
    77   41   83 1
    78   42   47 1
    79   42   43 2
    80   43   44 1
    81   43   84 1
    82   44   45 2
    83   44   46 1
    84   46   47 1
    85   47   85 1
    86   47   86 1
    87   48   87 1
    88   49   50 2
    89   49   88 1
    90   51   89 1
    91   52   53 1
    92   53   90 1
    93   53   91 1
    94   53   92 1
    95   54   55 1
    96   55   56 2
    97   55   57 1
    98   57   93 1
    99   57   94 1
   100   57   95 1
@<TRIPOS>MOLECULE
ZINC20574042
   66    69     0     0     0
SMALL
USER_CHARGES
ethyl 4-methyl-2-[[2-[[1-(2-morpholinoethyl)-2-oxo-5,6,7,8-tetrahydroquinazolin-4-yl]sulfanyl]acetyl]amino]thiazole-5-carboxylate
@<TRIPOS>ATOM
      1 C1        -16.0488   -7.8045   -1.5952 C.3       1 <0>        -0.1552
      2 C2        -15.7364   -7.4187   -3.0425 C.3       1 <0>         0.0608
      3 O1        -14.4186   -6.8709   -3.1156 O.3       1 <0>        -0.3487
      4 C3        -13.9853   -6.4776   -4.3314 C.2       1 <0>         0.5646
      5 O2        -14.7081   -6.5970   -5.3028 O.2       1 <0>        -0.4943
      6 C4        -12.6479   -5.9080   -4.4814 C.2       1 <0>        -0.3244
      7 C5        -12.0040   -5.4434   -5.6207 C.2       1 <0>         0.1946
      8 N1        -10.7933   -4.9699   -5.4852 N.2       1 <0>        -0.5524
      9 C6        -10.1873   -4.9404   -4.3084 C.2       1 <0>         0.3008
     10 S1        -11.3863   -5.6159   -3.2496 S.3       1 <0>         0.2473
     11 N2         -8.9193   -4.4810   -3.9990 N.am      1 <0>        -0.6135
     12 C7         -8.4769   -4.5291   -2.7268 C.2       1 <0>         0.5366
     13 O3         -9.1902   -4.9749   -1.8533 O.2       1 <0>        -0.4821
     14 C8         -7.0959   -4.0288   -2.3899 C.3       1 <0>        -0.1584
     15 S2         -6.7991   -4.2259   -0.6153 S.3       1 <0>         0.0898
     16 C9         -5.1629   -3.5814   -0.5052 C.2       1 <0>         0.2291
     17 C10        -4.5020   -3.5366    0.7468 C.2       1 <0>        -0.2190
     18 C11        -3.2469   -3.0541    0.8010 C.2       1 <0>         0.2284
     19 N3         -2.6596   -2.5990   -0.3498 N.am      1 <0>        -0.5200
     20 C12        -3.3139   -2.6500   -1.5217 C.2       1 <0>         0.6408
     21 O4         -2.7674   -2.2439   -2.5340 O.2       1 <0>        -0.5276
     22 N4         -4.5506   -3.1380   -1.5939 N.2       1 <0>        -0.5618
     23 C13        -1.2999   -2.0557   -0.3027 C.3       1 <0>         0.0920
     24 C14        -1.3614   -0.5488   -0.0451 C.3       1 <0>         0.0437
     25 N5          0.0021   -0.0041    0.0020 N.3       1 <0>        -0.5306
     26 C15        -0.0179    1.4659    0.0101 C.3       1 <0>         0.0180
     27 C16         1.4204    1.9905   -0.0008 C.3       1 <0>         0.0614
     28 O5          2.1273    1.4524    1.1200 O.3       1 <0>        -0.3833
     29 C17         2.1669    0.0230    1.1434 C.3       1 <0>         0.0611
     30 C18         0.7362   -0.5215    1.1659 C.3       1 <0>         0.0096
     31 C19        -2.4483   -2.9910    2.0749 C.3       1 <0>        -0.1004
     32 C20        -3.3655   -3.1095    3.2909 C.3       1 <0>        -0.1191
     33 C21        -4.2661   -4.3357    3.0978 C.3       1 <0>        -0.1222
     34 C22        -5.2432   -4.0321    1.9586 C.3       1 <0>        -0.0663
     35 C23       -12.6808   -5.4779   -6.9667 C.3       1 <0>        -0.0895
     36 H1        -17.0632   -8.2262   -1.5390 H         1 <0>         0.0827
     37 H2        -15.9870   -6.9113   -0.9562 H         1 <0>         0.0682
     38 H3        -15.3207   -8.5534   -1.2501 H         1 <0>         0.0682
     39 H4        -15.7982   -8.3119   -3.6815 H         1 <0>         0.0713
     40 H5        -16.4645   -6.6699   -3.3877 H         1 <0>         0.0713
     41 H6         -8.2723   -4.0765   -4.7914 H         1 <0>         0.4640
     42 H7         -6.3488   -4.6073   -2.9531 H         1 <0>         0.1431
     43 H8         -7.0153   -2.9653   -2.6593 H         1 <0>         0.1429
     44 H9         -0.7380   -2.5435    0.5074 H         1 <0>         0.0946
     45 H10        -0.7966   -2.2433   -1.2626 H         1 <0>         0.1164
     46 H11        -1.9234   -0.0610   -0.8552 H         1 <0>         0.0880
     47 H12        -1.8646   -0.3611    0.9149 H         1 <0>         0.0410
     48 H13        -0.5499    1.8303   -0.8811 H         1 <0>         0.0904
     49 H14        -0.5328    1.8206    0.9151 H         1 <0>         0.0459
     50 H15         1.9165    1.6811   -0.9326 H         1 <0>         0.0636
     51 H16         1.4107    3.0886    0.0622 H         1 <0>         0.1027
     52 H17         2.6869   -0.3441    0.2463 H         1 <0>         0.0630
     53 H18         2.7038   -0.3143    2.0423 H         1 <0>         0.1019
     54 H19         0.2335   -0.1988    2.0895 H         1 <0>         0.0468
     55 H20         0.7594   -1.6205    1.1259 H         1 <0>         0.0875
     56 H21        -1.7226   -3.8175    2.0940 H         1 <0>         0.1038
     57 H22        -1.9126   -2.0315    2.1247 H         1 <0>         0.0925
     58 H23        -2.7566   -3.2283    4.1993 H         1 <0>         0.0833
     59 H24        -3.9793   -2.2008    3.3772 H         1 <0>         0.0742
     60 H25        -3.6471   -5.2089    2.8442 H         1 <0>         0.0713
     61 H26        -4.8181   -4.5354    4.0281 H         1 <0>         0.0814
     62 H27        -5.9544   -3.2626    2.2934 H         1 <0>         0.0861
     63 H28        -5.7908   -4.9512    1.7031 H         1 <0>         0.0863
     64 H29       -12.0025   -5.0666   -7.7288 H         1 <0>         0.0797
     65 H30       -13.6002   -4.8750   -6.9304 H         1 <0>         0.0892
     66 H31       -12.9337   -6.5172   -7.2234 H         1 <0>         0.0892
@<TRIPOS>BOND
     1    1    2 1
     2    1   36 1
     3    1   37 1
     4    1   38 1
     5    2    3 1
     6    2   39 1
     7    2   40 1
     8    3    4 1
     9    4    5 2
    10    4    6 1
    11    6   10 1
    12    6    7 2
    13    7    8 1
    14    7   35 1
    15    8    9 2
    16    9   10 1
    17    9   11 1
    18   11   12 am
    19   11   41 1
    20   12   13 2
    21   12   14 1
    22   14   15 1
    23   14   42 1
    24   14   43 1
    25   15   16 1
    26   16   22 2
    27   16   17 1
    28   17   34 1
    29   17   18 2
    30   18   19 1
    31   18   31 1
    32   19   20 am
    33   19   23 1
    34   20   21 2
    35   20   22 1
    36   23   24 1
    37   23   44 1
    38   23   45 1
    39   24   25 1
    40   24   46 1
    41   24   47 1
    42   25   30 1
    43   25   26 1
    44   26   27 1
    45   26   48 1
    46   26   49 1
    47   27   28 1
    48   27   50 1
    49   27   51 1
    50   28   29 1
    51   29   30 1
    52   29   52 1
    53   29   53 1
    54   30   54 1
    55   30   55 1
    56   31   32 1
    57   31   56 1
    58   31   57 1
    59   32   33 1
    60   32   58 1
    61   32   59 1
    62   33   34 1
    63   33   60 1
    64   33   61 1
    65   34   62 1
    66   34   63 1
    67   35   64 1
    68   35   65 1
    69   35   66 1
@<TRIPOS>MOLECULE
ZINC35484012
   72    75     0     0     0
SMALL
USER_CHARGES

@<TRIPOS>ATOM
      1 C1         -0.4809   -3.8280    9.8910 C.3       1 <0>        -0.1050
      2 C2         -0.3950   -4.6621    8.6388 C.2       1 <0>        -0.0161
      3 C3         -0.3379   -6.0174    8.7199 C.2       1 <0>        -0.1419
      4 C4         -0.2579   -6.7836    7.5440 C.2       1 <0>        -0.1349
      5 C5         -0.2373   -6.1803    6.3383 C.2       1 <0>         0.0357
      6 N1         -0.2940   -4.8180    6.2398 N.pl3     1 <0>        -0.3642
      7 C6         -0.3789   -4.0431    7.3697 C.2       1 <0>         0.1792
      8 N2         -0.4269   -2.7721    7.0068 N.2       1 <0>        -0.3407
      9 C7         -0.3816   -2.6951    5.6642 C.2       1 <0>         0.0010
     10 C8         -0.2892   -3.9773    5.1682 C.2       1 <0>        -0.0222
     11 C9         -0.2136   -4.3745    3.7164 C.3       1 <0>        -0.0668
     12 C10        -0.4129   -1.4553    4.8644 C.2       1 <0>         0.5121
     13 C11        -0.3456   -0.1510    5.5309 C.2       1 <0>        -0.4852
     14 C12        -0.5661    1.2001    4.8916 C.3       1 <0>         0.2623
     15 H1          0.1683    1.3662    4.1035 H         1 <0>         0.0767
     16 N3         -0.3929    2.1913    5.9600 N.am      1 <0>        -0.6142
     17 C13        -0.1056    1.5294    7.0955 C.2       1 <0>         0.5085
     18 O1          0.0975    2.0506    8.1741 O.2       1 <0>        -0.5305
     19 C14        -0.0797    0.0744    6.8385 C.2       1 <0>         0.2731
     20 O2          0.1726   -0.8807    7.7632 O.3       1 <0>        -0.5426
     21 C15        -0.5113    3.6444    5.8154 C.3       1 <0>         0.1455
     22 C16        -1.9596    4.0660    6.0714 C.3       1 <0>        -0.1841
     23 C17        -2.0832    5.5835    5.9205 C.3       1 <0>        -0.0072
     24 N4         -3.4738    5.9884    6.1663 N.4       1 <0>        -0.3865
     25 C18        -3.5691    7.4540    6.1395 C.3       1 <0>        -0.0456
     26 C19        -4.3402    5.4222    5.1237 C.3       1 <0>        -0.0550
     27 C20        -1.9609    1.2849    4.3273 C.ar      1 <0>         0.0130
     28 C21        -3.0452    1.3742    5.1801 C.ar      1 <0>        -0.2173
     29 C22        -4.3302    1.4519    4.6649 C.ar      1 <0>         0.1315
     30 C23        -4.5272    1.4404    3.2892 C.ar      1 <0>         0.0156
     31 C24        -3.4344    1.3510    2.4352 C.ar      1 <0>         0.1494
     32 C25        -2.1522    1.2788    2.9583 C.ar      1 <0>        -0.2087
     33 O3         -3.6219    1.3393    1.0883 O.3       1 <0>        -0.3061
     34 C26        -2.4650    1.1383    0.2739 C.3       1 <0>         0.0243
     35 O4         -5.7869    1.5161    2.7796 O.3       1 <0>        -0.3082
     36 C27        -6.3018    2.8223    2.5138 C.3       1 <0>         0.0374
     37 O5         -5.3964    1.5389    5.5047 O.3       1 <0>        -0.3061
     38 C28        -5.1192    1.5449    6.9065 C.3       1 <0>         0.0254
     39 O6         -0.4946   -1.5154    3.6515 O.2       1 <0>        -0.5282
     40 H2         -1.5253   -3.6017   10.1058 H         1 <0>         0.0713
     41 H3         -0.0497   -4.3805   10.7258 H         1 <0>         0.0641
     42 H4          0.0701   -2.8987    9.7470 H         1 <0>         0.0899
     43 H5         -0.3535   -6.5039    9.6840 H         1 <0>         0.1345
     44 H6         -0.2125   -7.8609    7.6067 H         1 <0>         0.1436
     45 H7         -0.1749   -6.7792    5.4417 H         1 <0>         0.1535
     46 H8         -1.2212   -4.5164    3.3256 H         1 <0>         0.0697
     47 H9          0.2883   -3.5896    3.1507 H         1 <0>         0.0964
     48 H10         0.3468   -5.3048    3.6230 H         1 <0>         0.0545
     49 H11         0.1429    4.1356    6.5357 H         1 <0>         0.0872
     50 H12        -0.2217    3.9338    4.8052 H         1 <0>         0.0840
     51 H13        -2.6137    3.5747    5.3511 H         1 <0>         0.0986
     52 H14        -2.2491    3.7766    7.0816 H         1 <0>         0.0896
     53 H15        -1.4290    6.0748    6.6407 H         1 <0>         0.1329
     54 H16        -1.7937    5.8729    4.9103 H         1 <0>         0.1307
     55 H17        -3.2509    7.8211    5.1638 H         1 <0>         0.1209
     56 H18        -4.6009    7.7544    6.3219 H         1 <0>         0.1220
     57 H19        -2.9262    7.8741    6.9131 H         1 <0>         0.1228
     58 H20        -4.0219    5.7893    4.1480 H         1 <0>         0.1234
     59 H21        -4.2694    4.3347    5.1436 H         1 <0>         0.1229
     60 H22        -5.3719    5.7226    5.3061 H         1 <0>         0.1243
     61 H23        -2.8913    1.3831    6.2490 H         1 <0>         0.1301
     62 H24        -1.3021    1.2137    2.2954 H         1 <0>         0.1377
     63 H25        -2.7394    1.2327   -0.7767 H         1 <0>         0.1002
     64 H26        -1.7120    1.8865    0.5214 H         1 <0>         0.0555
     65 H27        -2.0611    0.1424    0.4559 H         1 <0>         0.0653
     66 H28        -6.3248    3.3989    3.4386 H         1 <0>         0.0331
     67 H29        -5.6618    3.3245    1.7884 H         1 <0>         0.0413
     68 H30        -7.3116    2.7399    2.1118 H         1 <0>         0.0898
     69 H31        -4.6059    0.6229    7.1794 H         1 <0>         0.0655
     70 H32        -4.4859    2.3986    7.1480 H         1 <0>         0.0426
     71 H33        -6.0545    1.6180    7.4615 H         1 <0>         0.1019
     72 H34        -3.7683    5.6486    7.0695 H         1 <0>         0.4266
@<TRIPOS>BOND
     1    1    2 1
     2    1   40 1
     3    1   41 1
     4    1   42 1
     5    2    7 1
     6    2    3 2
     7    3    4 1
     8    3   43 1
     9    4    5 2
    10    4   44 1
    11    5    6 1
    12    5   45 1
    13    6   10 1
    14    6    7 1
    15    7    8 2
    16    8    9 1
    17    9   10 2
    18    9   12 1
    19   10   11 1
    20   11   46 1
    21   11   47 1
    22   11   48 1
    23   12   13 1
    24   12   39 2
    25   13   19 2
    26   13   14 1
    27   14   16 1
    28   14   27 1
    29   14   15 1
    30   16   21 1
    31   16   17 am
    32   17   18 2
    33   17   19 1
    34   19   20 1
    35   21   22 1
    36   21   49 1
    37   21   50 1
    38   22   23 1
    39   22   51 1
    40   22   52 1
    41   23   24 1
    42   23   53 1
    43   23   54 1
    44   24   25 1
    45   24   26 1
    46   24   72 1
    47   25   55 1
    48   25   56 1
    49   25   57 1
    50   26   58 1
    51   26   59 1
    52   26   60 1
    53   27   32 ar
    54   27   28 ar
    55   28   29 ar
    56   28   61 1
    57   29   30 ar
    58   29   37 1
    59   30   31 ar
    60   30   35 1
    61   31   32 ar
    62   31   33 1
    63   32   62 1
    64   33   34 1
    65   34   63 1
    66   34   64 1
    67   34   65 1
    68   35   36 1
    69   36   66 1
    70   36   67 1
    71   36   68 1
    72   37   38 1
    73   38   69 1
    74   38   70 1
    75   38   71 1
@<TRIPOS>MOLECULE
ZINC36695861
   63    65     0     0     0
SMALL
USER_CHARGES

@<TRIPOS>ATOM
      1 C1         -0.0187    1.5258    0.0104 C.3       1 <0>        -0.1531
      2 C2          0.0021   -0.0041    0.0020 C.3       1 <0>         0.0797
      3 O1         -1.3386   -0.4987    0.0122 O.3       1 <0>        -0.3632
      4 C3         -1.4968   -1.8357    0.0065 C.2       1 <0>         0.6528
      5 O2         -0.5233   -2.5627   -0.0067 O.2       1 <0>        -0.5684
      6 N1         -2.7351   -2.3678    0.0155 N.am      1 <0>        -0.5962
      7 C4         -3.9217   -1.5007    0.0253 C.3       1 <0>         0.0984
      8 C5         -4.8152   -1.8794   -1.1624 C.3       1 <0>         0.0986
      9 N2         -5.0030   -3.3370   -1.1628 N.am      1 <0>        -0.6139
     10 C6         -3.8165   -4.2040   -1.1726 C.3       1 <0>         0.0912
     11 C7         -2.9230   -3.8253    0.0094 C.3       1 <0>         0.1119
     12 C8         -6.2413   -3.8690   -1.1538 C.2       1 <0>         0.5379
     13 O3         -7.2131   -3.1433   -1.1454 O.2       1 <0>        -0.5086
     14 C9         -6.4184   -5.3655   -1.1543 C.3       1 <0>        -0.1485
     15 S1         -8.1879   -5.7650   -1.1411 S.3       1 <0>        -0.1093
     16 C10        -8.2283   -7.5786   -1.1430 C.3       1 <0>        -0.1157
     17 C11        -9.6600   -8.0491   -1.1325 C.2       1 <0>         0.5095
     18 O4        -10.5664   -7.2384   -1.1245 O.2       1 <0>        -0.5076
     19 N3         -9.9318   -9.3496   -1.1320 N.2       1 <0>        -0.6090
     20 C12       -11.1967   -9.7653   -1.1227 C.2       1 <0>         0.3956
     21 N4        -11.6522  -11.0432   -1.1153 N.pl3     1 <0>        -0.4855
     22 C13       -13.0141  -11.2880   -1.1052 C.ar      1 <0>         0.0866
     23 C14       -13.6922  -12.5149   -1.0972 C.ar      1 <0>        -0.0688
     24 C15       -15.0665  -12.5571   -1.0889 C.ar      1 <0>        -0.1626
     25 C16       -15.8209  -11.3902   -1.0883 C.ar      1 <0>         0.1334
     26 C17       -15.1716  -10.1634   -1.0957 C.ar      1 <0>        -0.0672
     27 C18       -13.7975  -10.1250   -1.1040 C.ar      1 <0>        -0.1618
     28 S2        -12.5901   -8.8256   -1.1102 S.3       1 <0>         0.2431
     29 O5        -17.1792  -11.4494   -1.0810 O.3       1 <0>        -0.3068
     30 C19       -17.7719  -12.7496   -1.0741 C.3       1 <0>         0.0237
     31 C20       -10.7049  -12.1607   -1.1183 C.3       1 <0>         0.1095
     32 C21       -10.3704  -12.5396    0.3014 C.2       1 <0>         0.4456
     33 O6        -10.8719  -11.9379    1.2214 O.2       1 <0>        -0.4866
     34 O7         -9.5155  -13.5455    0.5440 O.3       1 <0>        -0.3487
     35 C22        -9.2442  -13.8504    1.9134 C.3       1 <0>         0.0343
     36 H1          1.0039    1.9031    0.0027 H         1 <0>         0.0832
     37 H2         -0.5459    1.8868   -0.8726 H         1 <0>         0.0672
     38 H3         -0.5289    1.8773    0.9072 H         1 <0>         0.0672
     39 H4          0.5123   -0.3556   -0.8948 H         1 <0>         0.0687
     40 H5          0.5293   -0.3651    0.8851 H         1 <0>         0.0687
     41 H6         -4.4708   -1.6427    0.9561 H         1 <0>         0.0795
     42 H7         -3.6143   -0.4589   -0.0658 H         1 <0>         0.1078
     43 H8         -5.7822   -1.3859   -1.0646 H         1 <0>         0.1111
     44 H9         -4.3372   -1.5719   -2.0925 H         1 <0>         0.0768
     45 H10        -4.1239   -5.2458   -1.0815 H         1 <0>         0.1020
     46 H11        -3.2673   -4.0620   -2.1034 H         1 <0>         0.0815
     47 H12        -1.9562   -4.3184   -0.0921 H         1 <0>         0.1120
     48 H13        -3.3994   -4.1366    0.9391 H         1 <0>         0.0804
     49 H14        -5.9578   -5.7856   -2.0484 H         1 <0>         0.1124
     50 H15        -5.9440   -5.7879   -0.2685 H         1 <0>         0.1121
     51 H16        -7.7297   -7.9522   -2.0374 H         1 <0>         0.1147
     52 H17        -7.7159   -7.9544   -0.2575 H         1 <0>         0.1133
     53 H18       -13.1292  -13.4366   -1.0979 H         1 <0>         0.1341
     54 H19       -15.5682  -13.5135   -1.0832 H         1 <0>         0.1451
     55 H20       -15.7415   -9.2460   -1.0950 H         1 <0>         0.1518
     56 H21       -17.4504  -13.2908   -0.1842 H         1 <0>         0.0590
     57 H22       -18.8577  -12.6540   -1.0686 H         1 <0>         0.1062
     58 H23       -17.4598  -13.2959   -1.9642 H         1 <0>         0.0595
     59 H24       -11.1523  -13.0149   -1.6265 H         1 <0>         0.1344
     60 H25        -9.7946  -11.8640   -1.6392 H         1 <0>         0.1486
     61 H26        -8.8140  -12.9762    2.4020 H         1 <0>         0.0632
     62 H27       -10.1717  -14.1271    2.4147 H         1 <0>         0.0621
     63 H28        -8.5400  -14.6806    1.9682 H         1 <0>         0.1073
@<TRIPOS>BOND
     1    1    2 1
     2    1   36 1
     3    1   37 1
     4    1   38 1
     5    2    3 1
     6    2   39 1
     7    2   40 1
     8    3    4 1
     9    4    5 2
    10    4    6 am
    11    6   11 1
    12    6    7 1
    13    7    8 1
    14    7   41 1
    15    7   42 1
    16    8    9 1
    17    8   43 1
    18    8   44 1
    19    9   10 1
    20    9   12 am
    21   10   11 1
    22   10   45 1
    23   10   46 1
    24   11   47 1
    25   11   48 1
    26   12   13 2
    27   12   14 1
    28   14   15 1
    29   14   49 1
    30   14   50 1
    31   15   16 1
    32   16   17 1
    33   16   51 1
    34   16   52 1
    35   17   18 2
    36   17   19 1
    37   19   20 2
    38   20   28 1
    39   20   21 1
    40   21   22 1
    41   21   31 1
    42   22   27 ar
    43   22   23 ar
    44   23   24 ar
    45   23   53 1
    46   24   25 ar
    47   24   54 1
    48   25   26 ar
    49   25   29 1
    50   26   27 ar
    51   26   55 1
    52   27   28 1
    53   29   30 1
    54   30   56 1
    55   30   57 1
    56   30   58 1
    57   31   32 1
    58   31   59 1
    59   31   60 1
    60   32   33 2
    61   32   34 1
    62   34   35 1
    63   35   61 1
    64   35   62 1
    65   35   63 1
@<TRIPOS>MOLECULE
ZINC62725245
   63    65     0     0     0
SMALL
USER_CHARGES

@<TRIPOS>ATOM
      1 C1          0.4396    1.4724   -0.0545 C.3       1 <0>        -0.1106
      2 C2          0.2224   -0.0187   -0.0292 C.ar      1 <0>        -0.0751
      3 C3         -0.0989   -0.6734   -1.1945 C.ar      1 <0>        -0.0225
      4 C4         -0.3090   -2.0608   -1.2103 C.ar      1 <0>         0.0565
      5 C5         -0.1724   -2.7269    0.0165 C.ar      1 <0>        -0.1092
      6 C6          0.1481   -2.0799    1.1830 C.ar      1 <0>        -0.1114
      7 C7          0.3563   -0.7063    1.1695 C.ar      1 <0>         0.1389
      8 O1          0.6800   -0.0453    2.3127 O.3       1 <0>        -0.3143
      9 C8          0.7981   -0.8273    3.5029 C.3       1 <0>         0.2354
     10 H1          1.5126   -1.6338    3.3386 H         1 <0>         0.1347
     11 C9          1.2856    0.0606    4.6508 C.3       1 <0>         0.1444
     12 H2          1.4147   -0.5433    5.5490 H         1 <0>         0.1412
     13 C10         0.2477    1.1557    4.9152 C.3       1 <0>         0.0897
     14 H3          0.1545    1.7902    4.0338 H         1 <0>         0.1219
     15 C11        -1.1030    0.5007    5.2201 C.3       1 <0>         0.0482
     16 H4         -1.8602    1.2731    5.3551 H         1 <0>         0.1134
     17 C12        -1.4983   -0.4042    4.0502 C.3       1 <0>         0.0786
     18 H5         -1.6184    0.1978    3.1495 H         1 <0>         0.1025
     19 O2         -0.4762   -1.3804    3.8381 O.3       1 <0>        -0.3542
     20 C13        -2.8176   -1.1084    4.3729 C.3       1 <0>         0.0768
     21 O3         -3.2459   -1.8617    3.2366 O.3       1 <0>        -0.3444
     22 C14        -4.3957   -2.5440    3.3559 C.2       1 <0>         0.4594
     23 O4         -5.0180   -2.5029    4.3908 O.2       1 <0>        -0.5064
     24 C15        -4.9104   -3.3612    2.1991 C.3       1 <0>        -0.1472
     25 O5         -0.9975   -0.2782    6.4134 O.3       1 <0>        -0.3284
     26 C16        -2.1063   -0.4036    7.1594 C.2       1 <0>         0.4561
     27 O6         -3.1326    0.1304    6.8107 O.2       1 <0>        -0.5029
     28 C17        -2.0712   -1.2103    8.4318 C.3       1 <0>        -0.1471
     29 O7          0.6605    1.9461    6.0318 O.3       1 <0>        -0.3295
     30 C18         0.2795    3.2332    6.0414 C.2       1 <0>         0.4564
     31 O8         -0.3826    3.6741    5.1319 O.2       1 <0>        -0.5035
     32 C19         0.6776    4.1283    7.1866 C.3       1 <0>        -0.1473
     33 N1          2.5647    0.6745    4.2857 N.am      1 <0>        -0.7191
     34 C20         3.7161    0.0039    4.4879 C.2       1 <0>         0.5166
     35 O9          3.6934   -1.1078    4.9722 O.2       1 <0>        -0.5361
     36 C21         5.0319    0.6354    4.1123 C.3       1 <0>        -0.1726
     37 S1         -0.5070   -4.4187   -0.4137 S.3       1 <0>        -0.0492
     38 C22        -0.8029   -4.1564   -2.1564 C.2       1 <0>         0.5185
     39 O10        -1.0894   -4.9691   -3.0148 O.2       1 <0>        -0.3745
     40 O11        -0.6275   -2.8273   -2.2735 O.3       1 <0>        -0.2840
     41 C23        -0.2281    0.1110   -2.4747 C.3       1 <0>        -0.1207
     42 H6          1.4653    1.6851   -0.3559 H         1 <0>         0.0786
     43 H7         -0.2498    1.9279   -0.7654 H         1 <0>         0.0774
     44 H8          0.2603    1.8826    0.9393 H         1 <0>         0.0754
     45 H9          0.2425   -2.6351    2.1045 H         1 <0>         0.1538
     46 H10        -2.6738   -1.7789    5.2202 H         1 <0>         0.0743
     47 H11        -3.5748   -0.3650    4.6223 H         1 <0>         0.1001
     48 H12        -4.1772   -4.1244    1.9386 H         1 <0>         0.1025
     49 H13        -5.8484   -3.8396    2.4810 H         1 <0>         0.1043
     50 H14        -5.0781   -2.7105    1.3408 H         1 <0>         0.1003
     51 H15        -1.8033   -0.5618    9.2659 H         1 <0>         0.1089
     52 H16        -3.0534   -1.6472    8.6122 H         1 <0>         0.1073
     53 H17        -1.3316   -2.0054    8.3376 H         1 <0>         0.0979
     54 H18         1.6331    4.6023    6.9621 H         1 <0>         0.1098
     55 H19        -0.0836    4.8952    7.3299 H         1 <0>         0.1070
     56 H20         0.7712    3.5348    8.0961 H         1 <0>         0.0969
     57 H21         2.5829    1.5637    3.8984 H         1 <0>         0.4072
     58 H22         5.4216    1.1958    4.9621 H         1 <0>         0.0980
     59 H23         5.7421   -0.1431    3.8339 H         1 <0>         0.0976
     60 H24         4.8834    1.3103    3.2694 H         1 <0>         0.0824
     61 H25         0.7568    0.2380   -2.9240 H         1 <0>         0.0827
     62 H26        -0.8764   -0.4268   -3.1665 H         1 <0>         0.0756
     63 H27        -0.6583    1.0892   -2.2596 H         1 <0>         0.0825
@<TRIPOS>BOND
     1    1    2 1
     2    1   42 1
     3    1   43 1
     4    1   44 1
     5    2    7 ar
     6    2    3 ar
     7    3    4 ar
     8    3   41 1
     9    4   40 1
    10    4    5 ar
    11    5    6 ar
    12    5   37 1
    13    6    7 ar
    14    6   45 1
    15    7    8 1
    16    8    9 1
    17    9   10 1
    18    9   19 1
    19    9   11 1
    20   11   12 1
    21   11   13 1
    22   11   33 1
    23   13   14 1
    24   13   15 1
    25   13   29 1
    26   15   16 1
    27   15   17 1
    28   15   25 1
    29   17   18 1
    30   17   19 1
    31   17   20 1
    32   20   21 1
    33   20   46 1
    34   20   47 1
    35   21   22 1
    36   22   23 2
    37   22   24 1
    38   24   48 1
    39   24   49 1
    40   24   50 1
    41   25   26 1
    42   26   27 2
    43   26   28 1
    44   28   51 1
    45   28   52 1
    46   28   53 1
    47   29   30 1
    48   30   31 2
    49   30   32 1
    50   32   54 1
    51   32   55 1
    52   32   56 1
    53   33   34 am
    54   33   57 1
    55   34   35 2
    56   34   36 1
    57   36   58 1
    58   36   59 1
    59   36   60 1
    60   37   38 1
    61   38   39 2
    62   38   40 1
    63   41   61 1
    64   41   62 1
    65   41   63 1
@<TRIPOS>MOLECULE
ZINC11377520
   68    71     0     0     0
SMALL
USER_CHARGES
N-(6-amino-2,4-dioxo-1-propyl-pyrimidin-5-yl)-N-butyl-2-[(4-cyclopropyl-5-pyrrolidin-1-yl-1,2,4-triazol-3-yl)sulfanyl]acetamide
@<TRIPOS>ATOM
      1 C1         -3.6401   -4.1507   -2.9001 C.3       1 <0>        -0.1520
      2 C2         -3.3038   -4.3285   -1.4182 C.3       1 <0>        -0.1228
      3 C3         -1.8695   -4.8424   -1.2788 C.3       1 <0>        -0.1380
      4 C4         -1.5332   -5.0201    0.2032 C.3       1 <0>         0.1062
      5 N1         -0.1597   -5.5122    0.3367 N.am      1 <0>        -0.5099
      6 C5          0.0955   -6.8998    0.3375 C.2       1 <0>        -0.1568
      7 C6          0.8631   -7.4728   -0.6557 C.2       1 <0>         0.5013
      8 N2          1.0944   -8.8285   -0.6279 N.am      1 <0>        -0.5372
      9 C7          0.5783   -9.5870    0.3562 C.2       1 <0>         0.7122
     10 O1          0.7939  -10.7837    0.3628 O.2       1 <0>        -0.5316
     11 N3         -0.1720   -9.0461    1.3324 N.am      1 <0>        -0.6623
     12 H1         -0.5474   -9.6328    2.0499 H         1 <0>         0.4406
     13 C8         -0.4237   -7.7226    1.3547 C.2       1 <0>         0.5691
     14 O2         -1.1010   -7.2415    2.2474 O.2       1 <0>        -0.5201
     15 C9          1.9079   -9.4500   -1.6757 C.3       1 <0>         0.1032
     16 C10         3.3773   -9.4478   -1.2493 C.3       1 <0>        -0.1455
     17 C11         4.2269  -10.0969   -2.3437 C.3       1 <0>        -0.1496
     18 N4          1.3900   -6.6982   -1.6613 N.pl3     1 <0>        -0.8219
     19 C12         0.8612   -4.6383    0.4588 C.2       1 <0>         0.5291
     20 O3          1.9875   -5.0448    0.6542 O.2       1 <0>        -0.5103
     21 C13         0.6023   -3.1575    0.3526 C.3       1 <0>        -0.1684
     22 S1          2.1622   -2.2547    0.5583 S.3       1 <0>         0.0930
     23 C14         1.6974   -0.5616    0.4102 C.2       1 <0>         0.1864
     24 N5          0.4848   -0.1109    0.1989 N.2       1 <0>        -0.3077
     25 N6          0.5461    1.2878    0.1460 N.2       1 <0>        -0.3388
     26 C15         1.7935    1.6457    0.3267 C.2       1 <0>         0.4080
     27 N7          2.5381    0.5128    0.4948 N.pl3     1 <0>        -0.4529
     28 C16         3.9839    0.4588    0.7248 C.3       1 <0>         0.0460
     29 C17         4.6882   -0.8780    0.4840 C.3       1 <0>        -0.1758
     30 C18         4.4800   -0.3685    1.9124 C.3       1 <0>        -0.1702
     31 N8          2.2744    2.9487    0.3448 N.pl3     1 <0>        -0.4380
     32 C19         3.2400    3.1750   -0.7609 C.3       1 <0>         0.0344
     33 C20         3.2500    4.7169   -0.9128 C.3       1 <0>        -0.1212
     34 C21         1.7722    5.0981   -0.6667 C.3       1 <0>        -0.1318
     35 C22         1.1804    3.9204    0.1299 C.3       1 <0>         0.0447
     36 H2         -2.9518   -3.4323   -3.3453 H         1 <0>         0.0537
     37 H3         -3.5461   -5.1088   -3.4115 H         1 <0>         0.0524
     38 H4         -4.6620   -3.7846   -2.9995 H         1 <0>         0.0565
     39 H5         -3.9921   -5.0470   -0.9730 H         1 <0>         0.0658
     40 H6         -3.3978   -3.3704   -0.9069 H         1 <0>         0.0675
     41 H7         -1.1812   -4.1239   -1.7239 H         1 <0>         0.0628
     42 H8         -1.7755   -5.8004   -1.7901 H         1 <0>         0.0667
     43 H9         -2.2214   -5.7386    0.6483 H         1 <0>         0.0936
     44 H10        -1.6272   -4.0621    0.7145 H         1 <0>         0.0857
     45 H11         1.5765  -10.4766   -1.8321 H         1 <0>         0.1138
     46 H12         1.7978   -8.8875   -2.6029 H         1 <0>         0.0926
     47 H13         3.7087   -8.4212   -1.0930 H         1 <0>         0.0696
     48 H14         3.4874  -10.0103   -0.3222 H         1 <0>         0.0773
     49 H15         5.2737  -10.0953   -2.0399 H         1 <0>         0.0651
     50 H16         3.8955  -11.1235   -2.5000 H         1 <0>         0.0622
     51 H17         4.1168   -9.5344   -3.2708 H         1 <0>         0.0580
     52 H18         1.1322   -5.7665   -1.7415 H         1 <0>         0.4211
     53 H19         2.0196   -7.0831   -2.2908 H         1 <0>         0.4093
     54 H20        -0.0983   -2.8544    1.1306 H         1 <0>         0.1274
     55 H21         0.1784   -2.9321   -0.6260 H         1 <0>         0.1257
     56 H22         4.5331    1.3681    0.4804 H         1 <0>         0.1512
     57 H23         4.0757   -1.7173    0.1545 H         1 <0>         0.1172
     58 H24         5.7007   -0.8481    0.0816 H         1 <0>         0.1215
     59 H25         5.3557   -0.0036    2.4491 H         1 <0>         0.1168
     60 H26         3.7306   -0.8723    2.5228 H         1 <0>         0.1091
     61 H27         4.2298    2.8089   -0.4882 H         1 <0>         0.0909
     62 H28         2.8924    2.7003   -1.6785 H         1 <0>         0.0595
     63 H29         3.5600    5.0034   -1.9178 H         1 <0>         0.0830
     64 H30         3.8963    5.1741   -0.1636 H         1 <0>         0.0827
     65 H31         1.2483    5.2143   -1.6154 H         1 <0>         0.0757
     66 H32         1.7105    6.0175   -0.0845 H         1 <0>         0.0820
     67 H33         0.3760    3.4542   -0.4391 H         1 <0>         0.0793
     68 H34         0.8011    4.2709    1.0898 H         1 <0>         0.0926
@<TRIPOS>BOND
     1    1    2 1
     2    1   36 1
     3    1   37 1
     4    1   38 1
     5    2    3 1
     6    2   39 1
     7    2   40 1
     8    3    4 1
     9    3   41 1
    10    3   42 1
    11    4    5 1
    12    4   43 1
    13    4   44 1
    14    5    6 1
    15    5   19 am
    16    6   13 1
    17    6    7 2
    18    7    8 1
    19    7   18 1
    20    8    9 am
    21    8   15 1
    22    9   10 2
    23    9   11 am
    24   11   12 1
    25   11   13 am
    26   13   14 2
    27   15   16 1
    28   15   45 1
    29   15   46 1
    30   16   17 1
    31   16   47 1
    32   16   48 1
    33   17   49 1
    34   17   50 1
    35   17   51 1
    36   18   52 1
    37   18   53 1
    38   19   20 2
    39   19   21 1
    40   21   22 1
    41   21   54 1
    42   21   55 1
    43   22   23 1
    44   23   27 1
    45   23   24 2
    46   24   25 1
    47   25   26 2
    48   26   27 1
    49   26   31 1
    50   27   28 1
    51   28   30 1
    52   28   29 1
    53   28   56 1
    54   29   30 1
    55   29   57 1
    56   29   58 1
    57   30   59 1
    58   30   60 1
    59   31   35 1
    60   31   32 1
    61   32   33 1
    62   32   61 1
    63   32   62 1
    64   33   34 1
    65   33   63 1
    66   33   64 1
    67   34   35 1
    68   34   65 1
    69   34   66 1
    70   35   67 1
    71   35   68 1
@<TRIPOS>MOLECULE
ZINC18367754
   51    53     0     0     0
SMALL
USER_CHARGES
dimethyl 3-(2-methoxy-2-oxo-ethyl)-5-[[2-[[5-(1H-pyrrol-2-yl)-1,3,4-oxadiazol-2-yl]sulfanyl]acetyl]amino]thiophene-2,4-dicarboxylate
@<TRIPOS>ATOM
      1 C1          4.2714    2.3792    4.4867 C.3       1 <0>         0.0366
      2 O1          2.8856    2.6263    4.1304 O.3       1 <0>        -0.3567
      3 C2          2.6585    3.2548    2.9663 C.2       1 <0>         0.4711
      4 O2          3.5868    3.5875    2.2682 O.2       1 <0>        -0.4922
      5 C3          1.2456    3.5456    2.5302 C.3       1 <0>        -0.0796
      6 C4          1.2660    4.2525    1.1994 C.2       1 <0>         0.0381
      7 C5          1.2322    3.5424    0.0093 C.2       1 <0>        -0.2047
      8 C6          1.2484    4.2719   -1.1847 C.2       1 <0>         0.0939
      9 S1          1.3169    5.9141   -0.6346 S.3       1 <0>         0.3682
     10 C7          1.3231    5.6184    1.1234 C.2       1 <0>        -0.2703
     11 C8          1.3715    6.5925    2.2131 C.2       1 <0>         0.5596
     12 O3          1.3679    6.2129    3.3689 O.2       1 <0>        -0.4921
     13 O4          1.4199    7.9122    1.9366 O.3       1 <0>        -0.3456
     14 C9          1.4654    8.8070    3.0499 C.3       1 <0>         0.0353
     15 N1          1.2173    3.7996   -2.4821 N.am      1 <0>        -0.6048
     16 C10         1.2402    4.6650   -3.5150 C.2       1 <0>         0.5368
     17 O5          1.2882    5.8584   -3.3052 O.2       1 <0>        -0.4743
     18 C11         1.2063    4.1496   -4.9307 C.3       1 <0>        -0.1670
     19 S2          1.2484    5.5455   -6.0821 S.3       1 <0>         0.1720
     20 C12         1.1998    4.6789   -7.6155 C.2       1 <0>         0.1130
     21 N2          1.1540    3.3765   -7.7699 N.2       1 <0>        -0.2810
     22 N3          1.1248    3.0938   -9.0246 N.2       1 <0>        -0.2815
     23 C13         1.1606    4.2053   -9.7229 C.2       1 <0>         0.2560
     24 O6          1.2088    5.2319   -8.8442 O.3       1 <0>        -0.1891
     25 C14         1.1497    4.3135  -11.1897 C.2       1 <0>         0.0514
     26 C15         1.1806    5.4729  -11.9114 C.2       1 <0>        -0.1213
     27 C16         1.1592    5.1203  -13.2692 C.2       1 <0>        -0.2026
     28 C17         1.1069    3.7721  -13.3443 C.2       1 <0>         0.0378
     29 N4          1.1006    3.2671  -12.0781 N.pl3     1 <0>        -0.5311
     30 H1          1.0668    2.3265  -11.8437 H         1 <0>         0.4262
     31 C18         1.1753    2.0762    0.0020 C.2       1 <0>         0.5216
     32 O7          2.2040    1.4279   -0.0113 O.2       1 <0>        -0.4754
     33 O8         -0.0176    1.4478    0.0100 O.3       1 <0>        -0.3493
     34 C19         0.0021   -0.0041    0.0020 C.3       1 <0>         0.0298
     35 H2          4.7377    1.7576    3.7223 H         1 <0>         0.0638
     36 H3          4.8031    3.3280    4.5576 H         1 <0>         0.0641
     37 H4          4.3136    1.8664    5.4476 H         1 <0>         0.1037
     38 H5          0.7598    4.1803    3.2713 H         1 <0>         0.1454
     39 H6          0.6945    2.6098    2.4361 H         1 <0>         0.1134
     40 H7          0.5753    8.6689    3.6637 H         1 <0>         0.0657
     41 H8          2.3539    8.5999    3.6464 H         1 <0>         0.0644
     42 H9          1.5017    9.8348    2.6887 H         1 <0>         0.1080
     43 H10         1.1789    2.8450   -2.6499 H         1 <0>         0.4287
     44 H11         2.0706    3.5087   -5.1049 H         1 <0>         0.1446
     45 H12         0.2920    3.5771   -5.0871 H         1 <0>         0.1450
     46 H13         1.2171    6.4752  -11.5109 H         1 <0>         0.1497
     47 H14         1.1767    5.8043  -14.1048 H         1 <0>         0.1512
     48 H15         1.0757    3.1920  -14.2547 H         1 <0>         0.1814
     49 H16        -1.0205   -0.3814    0.0098 H         1 <0>         0.1084
     50 H17         0.5123   -0.3556   -0.8948 H         1 <0>         0.0664
     51 H18         0.5293   -0.3651    0.8851 H         1 <0>         0.0673
@<TRIPOS>BOND
     1    1    2 1
     2    1   35 1
     3    1   36 1
     4    1   37 1
     5    2    3 1
     6    3    4 2
     7    3    5 1
     8    5    6 1
     9    5   38 1
    10    5   39 1
    11    6   10 2
    12    6    7 1
    13    7    8 2
    14    7   31 1
    15    8    9 1
    16    8   15 1
    17    9   10 1
    18   10   11 1
    19   11   12 2
    20   11   13 1
    21   13   14 1
    22   14   40 1
    23   14   41 1
    24   14   42 1
    25   15   16 am
    26   15   43 1
    27   16   17 2
    28   16   18 1
    29   18   19 1
    30   18   44 1
    31   18   45 1
    32   19   20 1
    33   20   24 1
    34   20   21 2
    35   21   22 1
    36   22   23 2
    37   23   24 1
    38   23   25 1
    39   25   29 1
    40   25   26 2
    41   26   27 1
    42   26   46 1
    43   27   28 2
    44   27   47 1
    45   28   29 1
    46   28   48 1
    47   29   30 1
    48   31   32 2
    49   31   33 1
    50   33   34 1
    51   34   49 1
    52   34   50 1
    53   34   51 1
@<TRIPOS>MOLECULE
ZINC25462772
   61    62     0     0     0
SMALL
USER_CHARGES
O4-[2-[2-(2,4-dioxothiazolidin-3-yl)ethylamino]-2-oxo-ethyl] O3,O5-diethyl 2,6-dimethyl-1,4-dihydropyridine-3,4,5-tricarboxylate
@<TRIPOS>ATOM
      1 C1          2.2098   -0.1609   -2.6374 C.3       1 <0>        -0.1520
      2 C2          1.8381    0.2986   -1.2262 C.3       1 <0>         0.0540
      3 O1          0.5462    0.9089   -1.2487 O.3       1 <0>        -0.3334
      4 C3          0.0668    1.3721   -0.0753 C.2       1 <0>         0.5370
      5 O2          0.7292    1.2600    0.9393 O.2       1 <0>        -0.4990
      6 C4         -1.2078    1.9824   -0.0237 C.2       1 <0>        -0.2423
      7 C5         -2.3083    1.2127   -0.0830 C.2       1 <0>         0.2193
      8 N1         -3.5567    1.7692   -0.0226 N.pl3     1 <0>        -0.6421
      9 C6         -3.7234    3.0453    0.4419 C.2       1 <0>         0.2126
     10 C7         -2.6820    3.8919    0.5178 C.2       1 <0>        -0.2511
     11 C8         -1.3028    3.4774    0.0899 C.3       1 <0>         0.0687
     12 C9         -0.9909    4.0976   -1.2477 C.2       1 <0>         0.4587
     13 O3         -0.7203    3.3935   -2.1916 O.2       1 <0>        -0.4822
     14 O4         -1.0137    5.4320   -1.3905 O.3       1 <0>        -0.3244
     15 C10        -0.7030    5.9595   -2.7071 C.3       1 <0>         0.0485
     16 C11        -0.7775    7.4644   -2.6758 C.2       1 <0>         0.5203
     17 O5         -1.0642    8.0360   -1.6453 O.2       1 <0>        -0.5080
     18 N2         -0.5255    8.1749   -3.7930 N.am      1 <0>        -0.7369
     19 C12        -0.5979    9.6378   -3.7626 C.3       1 <0>         0.1140
     20 C13        -0.2706   10.1936   -5.1499 C.3       1 <0>         0.0747
     21 N3         -0.3430   11.6565   -5.1195 N.am      1 <0>        -0.5797
     22 C14        -1.5001   12.2335   -5.3972 C.2       1 <0>         0.5214
     23 O6         -2.4928   11.5948   -5.6734 O.2       1 <0>        -0.4586
     24 C15        -1.5005   13.7546   -5.3420 C.3       1 <0>        -0.1188
     25 S1          0.2549   14.0535   -4.8899 S.3       1 <0>        -0.1369
     26 C16         0.7728   12.3451   -4.8157 C.2       1 <0>         0.5628
     27 O7          1.8759   11.9069   -4.5525 O.2       1 <0>        -0.4106
     28 C17        -2.8893    5.2011    1.0105 C.2       1 <0>         0.5387
     29 O8         -2.4943    5.5028    2.1213 O.2       1 <0>        -0.4976
     30 O9         -3.5250    6.1160    0.2489 O.3       1 <0>        -0.3386
     31 C18        -3.6998    7.4186    0.8100 C.3       1 <0>         0.0628
     32 C19        -4.4350    8.3110   -0.1920 C.3       1 <0>        -0.1479
     33 C20        -5.0912    3.5073    0.8742 C.3       1 <0>        -0.1338
     34 C21        -2.1651   -0.2820   -0.2114 C.3       1 <0>        -0.1381
     35 H1          3.2043   -0.6307   -2.6200 H         1 <0>         0.0792
     36 H2          2.2260    0.7069   -3.3132 H         1 <0>         0.0676
     37 H3          1.4664   -0.8892   -2.9936 H         1 <0>         0.0664
     38 H4          1.8219   -0.5692   -0.5504 H         1 <0>         0.0678
     39 H5          2.5815    1.0269   -0.8700 H         1 <0>         0.0667
     40 H6         -4.4333    1.1902   -0.3485 H         1 <0>         0.4503
     41 H7         -0.5824    3.8184    0.8480 H         1 <0>         0.1205
     42 H8          0.3117    5.6486   -2.9966 H         1 <0>         0.1025
     43 H9         -1.4279    5.5716   -3.4379 H         1 <0>         0.1037
     44 H10        -0.2655    7.6564   -4.7276 H         1 <0>         0.4267
     45 H11        -1.6125    9.9487   -3.4731 H         1 <0>         0.0765
     46 H12         0.1270   10.0257   -3.0318 H         1 <0>         0.0753
     47 H13         0.7440    9.8826   -5.4394 H         1 <0>         0.1088
     48 H14        -0.9955    9.8057   -5.8807 H         1 <0>         0.1126
     49 H15        -1.7847   14.1571   -6.3255 H         1 <0>         0.1604
     50 H16        -2.2223   14.0938   -4.5845 H         1 <0>         0.1602
     51 H17        -4.2896    7.3431    1.7354 H         1 <0>         0.0627
     52 H18        -2.7160    7.8552    1.0369 H         1 <0>         0.0724
     53 H19        -4.5696    9.3137    0.2399 H         1 <0>         0.0765
     54 H20        -5.4188    7.8744   -0.4188 H         1 <0>         0.0613
     55 H21        -3.8452    8.3865   -1.1174 H         1 <0>         0.0678
     56 H22        -5.0346    4.5515    1.2153 H         1 <0>         0.0873
     57 H23        -5.4498    2.8716    1.6972 H         1 <0>         0.0926
     58 H24        -5.7875    3.4359    0.0256 H         1 <0>         0.0943
     59 H25        -3.1626   -0.7443   -0.2451 H         1 <0>         0.0846
     60 H26        -1.6089   -0.6727    0.6535 H         1 <0>         0.0931
     61 H27        -1.6193   -0.5199   -1.1363 H         1 <0>         0.1009
@<TRIPOS>BOND
     1    1    2 1
     2    1   35 1
     3    1   36 1
     4    1   37 1
     5    2    3 1
     6    2   38 1
     7    2   39 1
     8    3    4 1
     9    4    5 2
    10    4    6 1
    11    6   11 1
    12    6    7 2
    13    7    8 1
    14    7   34 1
    15    8    9 1
    16    8   40 1
    17    9   10 2
    18    9   33 1
    19   10   11 1
    20   10   28 1
    21   11   12 1
    22   11   41 1
    23   12   13 2
    24   12   14 1
    25   14   15 1
    26   15   16 1
    27   15   42 1
    28   15   43 1
    29   16   17 2
    30   16   18 am
    31   18   19 1
    32   18   44 1
    33   19   20 1
    34   19   45 1
    35   19   46 1
    36   20   21 1
    37   20   47 1
    38   20   48 1
    39   21   26 am
    40   21   22 am
    41   22   23 2
    42   22   24 1
    43   24   25 1
    44   24   49 1
    45   24   50 1
    46   25   26 1
    47   26   27 2
    48   28   29 2
    49   28   30 1
    50   30   31 1
    51   31   32 1
    52   31   51 1
    53   31   52 1
    54   32   53 1
    55   32   54 1
    56   32   55 1
    57   33   56 1
    58   33   57 1
    59   33   58 1
    60   34   59 1
    61   34   60 1
    62   34   61 1
@<TRIPOS>MOLECULE
ZINC44605361
   57    59     0     0     0
SMALL
USER_CHARGES

@<TRIPOS>ATOM
      1 C1         -0.0184    1.5028    0.0103 C.3       1 <0>        -0.1456
      2 C2          0.0021   -0.0041    0.0020 C.2       1 <0>         0.4600
      3 O1          0.0203   -0.6138    1.0450 O.2       1 <0>        -0.5059
      4 O2          0.0001   -0.6689   -1.1641 O.3       1 <0>        -0.3456
      5 C3          0.0201   -2.0962   -1.0971 C.3       1 <0>         0.0803
      6 C4          0.0146   -2.6733   -2.5141 C.3       1 <0>         0.0733
      7 H1         -0.8379   -2.2761   -3.0650 H         1 <0>         0.0922
      8 C5         -0.0892   -4.1991   -2.4435 C.3       1 <0>         0.0719
      9 H2          0.7411   -4.5940   -1.8580 H         1 <0>         0.1204
     10 C6         -0.0336   -4.7731   -3.8626 C.3       1 <0>         0.1066
     11 H3         -0.8913   -4.4175   -4.4336 H         1 <0>         0.1141
     12 C7          1.2602   -4.3091   -4.5388 C.3       1 <0>         0.0593
     13 H4          2.1177   -4.7062   -3.9957 H         1 <0>         0.1258
     14 C8          1.3118   -2.7790   -4.5285 C.3       1 <0>        -0.2722
     15 H5          0.4764   -2.3832   -5.1059 H         1 <0>         0.1065
     16 O3          1.2247   -2.3097   -3.1815 O.3       1 <0>        -0.2975
     17 S1          2.8736   -2.2215   -5.2638 S.o       1 <0>         1.4813
     18 O4          2.8212   -2.3930   -6.6735 O.2       1 <0>        -0.7912
     19 C9          2.8472   -0.4733   -5.0458 C.2       1 <0>        -0.0982
     20 N1          3.3248    0.1534   -4.0130 N.2       1 <0>        -0.3807
     21 C10         3.1335    1.4896   -4.1838 C.ar      1 <0>         0.0064
     22 C11         3.4370    2.6151   -3.4159 C.ar      1 <0>        -0.0451
     23 C12         3.1032    3.8680   -3.8791 C.ar      1 <0>        -0.1245
     24 C13         2.4672    4.0180   -5.1027 C.ar      1 <0>        -0.0760
     25 C14         2.1608    2.9150   -5.8717 C.ar      1 <0>        -0.1027
     26 C15         2.4906    1.6457   -5.4211 C.ar      1 <0>         0.0257
     27 O5          2.3360    0.4019   -5.9259 O.3       1 <0>        -0.1893
     28 O6          1.2894   -4.7800   -5.8877 O.3       1 <0>        -0.3264
     29 C16         2.4963   -5.0270   -6.4208 C.2       1 <0>         0.4718
     30 O7          3.4947   -4.8493   -5.7641 O.2       1 <0>        -0.5156
     31 C17         2.6058   -5.5260   -7.8386 C.3       1 <0>        -0.1445
     32 O8         -0.0580   -6.2006   -3.8022 O.3       1 <0>        -0.3374
     33 C18        -0.6195   -6.8448   -4.8373 C.2       1 <0>         0.4566
     34 O9         -1.0752   -6.2174   -5.7639 O.2       1 <0>        -0.4876
     35 C19        -0.6817   -8.3505   -4.8436 C.3       1 <0>        -0.1459
     36 O10        -1.3252   -4.5656   -1.8269 O.3       1 <0>        -0.3354
     37 C20        -1.3216   -4.7085   -0.4923 C.2       1 <0>         0.4559
     38 O11        -0.3028   -4.5282    0.1319 O.2       1 <0>        -0.4930
     39 C21        -2.5882   -5.0936    0.2277 C.3       1 <0>        -0.1466
     40 H6          1.0042    1.8801    0.0026 H         1 <0>         0.1073
     41 H7         -0.5455    1.8639   -0.8728 H         1 <0>         0.0925
     42 H8         -0.5286    1.8543    0.9071 H         1 <0>         0.1051
     43 H9          0.9196   -2.4228   -0.5753 H         1 <0>         0.0954
     44 H10        -0.8601   -2.4471   -0.5584 H         1 <0>         0.0826
     45 H11         3.9315    2.5035   -2.4623 H         1 <0>         0.1420
     46 H12         3.3376    4.7394   -3.2858 H         1 <0>         0.1426
     47 H13         2.2098    5.0058   -5.4556 H         1 <0>         0.1447
     48 H14         1.6649    3.0396   -6.8230 H         1 <0>         0.1377
     49 H15         1.6085   -5.6243   -8.2673 H         1 <0>         0.0946
     50 H16         3.1869   -4.8176   -8.4292 H         1 <0>         0.1172
     51 H17         3.1014   -6.4968   -7.8448 H         1 <0>         0.1113
     52 H18        -1.2504   -8.6943   -3.9796 H         1 <0>         0.1027
     53 H19        -1.1686   -8.6902   -5.7577 H         1 <0>         0.1060
     54 H20         0.3291   -8.7560   -4.7980 H         1 <0>         0.1015
     55 H21        -3.3954   -5.2118   -0.4951 H         1 <0>         0.0936
     56 H22        -2.4337   -6.0339    0.7569 H         1 <0>         0.1121
     57 H23        -2.8515   -4.3136    0.9421 H         1 <0>         0.1101
@<TRIPOS>BOND
     1    1    2 1
     2    1   40 1
     3    1   41 1
     4    1   42 1
     5    2    3 2
     6    2    4 1
     7    4    5 1
     8    5    6 1
     9    5   43 1
    10    5   44 1
    11    6    7 1
    12    6   16 1
    13    6    8 1
    14    8    9 1
    15    8   10 1
    16    8   36 1
    17   10   11 1
    18   10   12 1
    19   10   32 1
    20   12   13 1
    21   12   14 1
    22   12   28 1
    23   14   15 1
    24   14   16 1
    25   14   17 1
    26   17   18 2
    27   17   19 1
    28   19   27 1
    29   19   20 2
    30   20   21 1
    31   21   26 ar
    32   21   22 ar
    33   22   23 ar
    34   22   45 1
    35   23   24 ar
    36   23   46 1
    37   24   25 ar
    38   24   47 1
    39   25   26 ar
    40   25   48 1
    41   26   27 1
    42   28   29 1
    43   29   30 2
    44   29   31 1
    45   31   49 1
    46   31   50 1
    47   31   51 1
    48   32   33 1
    49   33   34 2
    50   33   35 1
    51   35   52 1
    52   35   53 1
    53   35   54 1
    54   36   37 1
    55   37   38 2
    56   37   39 1
    57   39   55 1
    58   39   56 1
    59   39   57 1
@<TRIPOS>MOLECULE
ZINC08837423
   63    65     0     0     0
SMALL
USER_CHARGES

@<TRIPOS>ATOM
      1 C1          1.2032    1.3559   -0.8163 C.3       1 <0>        -0.0984
      2 C2         -0.1143    0.9192   -1.4033 C.2       1 <0>        -0.0002
      3 C3         -0.3447   -0.2354   -2.1842 C.2       1 <0>        -0.2451
      4 C4         -1.6902   -0.2446   -2.5083 C.2       1 <0>         0.1424
      5 N1         -2.2647    0.8389   -1.9626 N.pl3     1 <0>        -0.5215
      6 H1         -3.2027    1.0746   -2.0362 H         1 <0>         0.4225
      7 C5         -1.3115    1.5608   -1.2763 C.2       1 <0>        -0.0720
      8 C6         -1.5440    2.8069   -0.5390 C.2       1 <0>         0.5358
      9 O1         -0.6210    3.3590    0.0283 O.2       1 <0>        -0.4950
     10 O2         -2.7817    3.3406   -0.4901 O.3       1 <0>        -0.3629
     11 C7         -2.9356    4.5558    0.2460 C.3       1 <0>         0.0373
     12 C8         -2.3909   -1.2926   -3.3340 C.3       1 <0>        -0.1023
     13 C9          0.6588   -1.2407   -2.5792 C.2       1 <0>         0.5414
     14 O3          1.8011   -1.1546   -2.1678 O.2       1 <0>        -0.4745
     15 C10         0.2805   -2.3448   -3.4680 C.2       1 <0>        -0.5019
     16 C11         0.3893   -2.3687   -4.8161 C.2       1 <0>         0.2565
     17 C12        -0.1026   -3.6679   -5.3203 C.2       1 <0>         0.5134
     18 O4         -0.1343   -3.9951   -6.4900 O.2       1 <0>        -0.5220
     19 N2         -0.5096   -4.4349   -4.2926 N.am      1 <0>        -0.6187
     20 C13        -0.2996   -3.6769   -3.0535 C.3       1 <0>         0.2576
     21 H2         -1.2504   -3.5286   -2.5415 H         1 <0>         0.0847
     22 C14         0.6659   -4.4054   -2.1545 C.ar      1 <0>        -0.0167
     23 C15         1.8335   -4.9307   -2.6755 C.ar      1 <0>        -0.0960
     24 C16         2.7191   -5.5989   -1.8509 C.ar      1 <0>        -0.0671
     25 C17         2.4373   -5.7414   -0.5050 C.ar      1 <0>        -0.0592
     26 C18         1.2701   -5.2152    0.0162 C.ar      1 <0>        -0.0505
     27 C19         0.3865   -4.5433   -0.8077 C.ar      1 <0>        -0.1125
     28 N3          3.3851   -6.4577    0.3778 N.pl3     1 <0>         0.0357
     29 O5          4.4058   -6.9182   -0.0781 O.2       1 <0>        -0.1669
     30 O6          3.1387   -6.5823    1.5548 O.3       1 <0>        -0.1606
     31 C20        -1.0602   -5.7889   -4.3924 C.3       1 <0>         0.1434
     32 C21         0.0770   -6.8092   -4.3098 C.3       1 <0>        -0.1846
     33 C22        -0.4980   -8.2232   -4.4140 C.3       1 <0>        -0.0067
     34 N4          0.5938   -9.2028   -4.3348 N.4       1 <0>        -0.3865
     35 C23         1.2180   -9.1340   -3.0068 C.3       1 <0>        -0.0539
     36 C24         0.0574  -10.5526   -4.5544 C.3       1 <0>        -0.0459
     37 O7          0.8716   -1.3625   -5.5816 O.3       1 <0>        -0.6398
     38 H3          1.3210    0.9206    0.1761 H         1 <0>         0.0709
     39 H4          2.0167    1.0199   -1.4593 H         1 <0>         0.0822
     40 H5          1.2249    2.4431   -0.7410 H         1 <0>         0.0768
     41 H6         -2.6465    4.3909    1.2840 H         1 <0>         0.0615
     42 H7         -2.3009    5.3274   -0.1897 H         1 <0>         0.0621
     43 H8         -3.9767    4.8758    0.2053 H         1 <0>         0.1015
     44 H9         -2.6634   -2.1344   -2.6974 H         1 <0>         0.0784
     45 H10        -3.2909   -0.8651   -3.7759 H         1 <0>         0.0647
     46 H11        -1.7254   -1.6364   -4.1258 H         1 <0>         0.1103
     47 H12         2.0537   -4.8195   -3.7270 H         1 <0>         0.1416
     48 H13         3.6310   -6.0100   -2.2581 H         1 <0>         0.1487
     49 H14         1.0498   -5.3268    1.0675 H         1 <0>         0.1519
     50 H15        -0.5236   -4.1290   -0.3998 H         1 <0>         0.1472
     51 H16        -1.7600   -5.9577   -3.5739 H         1 <0>         0.0858
     52 H17        -1.5801   -5.9005   -5.3438 H         1 <0>         0.0918
     53 H18         0.7767   -6.6403   -5.1283 H         1 <0>         0.0946
     54 H19         0.5969   -6.6976   -3.3584 H         1 <0>         0.0921
     55 H20        -1.1978   -8.3921   -3.5956 H         1 <0>         0.1303
     56 H21        -1.0180   -8.3348   -5.3655 H         1 <0>         0.1341
     57 H22         2.0281   -9.8608   -2.9480 H         1 <0>         0.1257
     58 H23         1.6160   -8.1324   -2.8439 H         1 <0>         0.1210
     59 H24         0.4731   -9.3576   -2.2431 H         1 <0>         0.1220
     60 H25        -0.4058  -10.6037   -5.5397 H         1 <0>         0.1234
     61 H26         0.8675  -11.2795   -4.4956 H         1 <0>         0.1229
     62 H27        -0.6875  -10.7763   -3.7907 H         1 <0>         0.1207
     63 H28         1.2834   -8.9958   -5.0417 H         1 <0>         0.4286
@<TRIPOS>BOND
     1    1    2 1
     2    1   38 1
     3    1   39 1
     4    1   40 1
     5    2    7 2
     6    2    3 1
     7    3    4 2
     8    3   13 1
     9    4    5 1
    10    4   12 1
    11    5    6 1
    12    5    7 1
    13    7    8 1
    14    8    9 2
    15    8   10 1
    16   10   11 1
    17   11   41 1
    18   11   42 1
    19   11   43 1
    20   12   44 1
    21   12   45 1
    22   12   46 1
    23   13   14 2
    24   13   15 1
    25   15   20 1
    26   15   16 2
    27   16   17 1
    28   16   37 1
    29   17   18 2
    30   17   19 am
    31   19   20 1
    32   19   31 1
    33   20   21 1
    34   20   22 1
    35   22   27 ar
    36   22   23 ar
    37   23   24 ar
    38   23   47 1
    39   24   25 ar
    40   24   48 1
    41   25   26 ar
    42   25   28 1
    43   26   27 ar
    44   26   49 1
    45   27   50 1
    46   28   29 2
    47   28   30 1
    48   31   32 1
    49   31   51 1
    50   31   52 1
    51   32   33 1
    52   32   53 1
    53   32   54 1
    54   33   34 1
    55   33   55 1
    56   33   56 1
    57   34   35 1
    58   34   36 1
    59   34   63 1
    60   35   57 1
    61   35   58 1
    62   35   59 1
    63   36   60 1
    64   36   61 1
    65   36   62 1
@<TRIPOS>MOLECULE
ZINC12887928
   63    68     0     0     0
SMALL
USER_CHARGES
(3aS,4S,6R,6aR)-4-(1H-indol-3-ylmethyl)-7'-methyl-2-sec-butyl-spiro[3a,4,5,6a-tetrahydropyrrolo[3,4-c]pyrrole-6,3'-indoline]-1,2',3-trione
@<TRIPOS>ATOM
      1 C1         -8.3356    1.5058    0.3152 C.3       1 <0>        -0.1540
      2 C2         -7.1887    1.6807    1.3127 C.3       1 <0>        -0.1418
      3 C3         -5.9990    2.3396    0.6116 C.3       1 <0>         0.1264
      4 H1         -6.3206    3.2736    0.1508 H         1 <0>         0.1136
      5 C4         -4.8994    2.6281    1.6355 C.3       1 <0>        -0.1716
      6 N1         -5.4807    1.4388   -0.4209 N.am      1 <0>        -0.5585
      7 C5         -5.0126    0.2159   -0.1457 C.2       1 <0>         0.5204
      8 O1         -4.9591   -0.2815    0.9585 O.2       1 <0>        -0.4322
      9 C6         -4.5616   -0.4519   -1.4262 C.3       1 <0>        -0.1367
     10 H2         -5.0712   -1.3950   -1.6238 H         1 <0>         0.1844
     11 C7         -3.0256   -0.6000   -1.4094 C.3       1 <0>         0.0454
     12 H3         -2.7180   -1.4321   -2.0427 H         1 <0>         0.1679
     13 C8         -3.4586    1.0258   -3.0304 C.3       1 <0>         0.0908
     14 C9         -4.8453    0.6283   -2.5097 C.3       1 <0>        -0.1211
     15 H4         -5.5075    0.2810   -3.3028 H         1 <0>         0.1817
     16 C10        -5.4360    1.7721   -1.7159 C.2       1 <0>         0.5133
     17 O2         -5.8114    2.8269   -2.1809 O.2       1 <0>        -0.4172
     18 C11        -3.1238    0.3111   -4.3087 C.ar      1 <0>        -0.1951
     19 C12        -3.0145   -1.0182   -4.6511 C.ar      1 <0>        -0.0485
     20 C13        -2.6805   -1.3746   -5.9456 C.ar      1 <0>        -0.1199
     21 C14        -2.4575   -0.3927   -6.8938 C.ar      1 <0>        -0.0489
     22 C15        -2.5661    0.9400   -6.5555 C.ar      1 <0>        -0.0839
     23 C16        -2.9018    1.3076   -5.2545 C.ar      1 <0>         0.1678
     24 N2         -3.0695    2.5679   -4.6766 N.am      1 <0>        -0.6384
     25 C17        -3.3977    2.4891   -3.3725 C.2       1 <0>         0.5263
     26 O3         -3.6041    3.4179   -2.6203 O.2       1 <0>        -0.4243
     27 C18        -2.3204    2.0017   -7.5964 C.3       1 <0>        -0.1278
     28 C19        -2.5268   -0.8090    0.0218 C.3       1 <0>        -0.0532
     29 C20        -1.0371   -1.0366    0.0064 C.2       1 <0>        -0.2315
     30 C21        -0.4108   -2.2238   -0.0060 C.2       1 <0>         0.1030
     31 N3          0.9446   -2.0362   -0.0179 N.pl3     1 <0>        -0.5847
     32 H5          1.6053   -2.7463   -0.0283 H         1 <0>         0.4257
     33 C22         1.2308   -0.6894   -0.0134 C.ar      1 <0>         0.0999
     34 C23         0.0021   -0.0041    0.0020 C.ar      1 <0>        -0.1124
     35 C24        -0.0169    1.3917    0.0097 C.ar      1 <0>        -0.1100
     36 C25         1.1601    2.0862    0.0022 C.ar      1 <0>        -0.1201
     37 C26         2.3747    1.4149   -0.0130 C.ar      1 <0>        -0.0936
     38 C27         2.4165    0.0376   -0.0208 C.ar      1 <0>        -0.1116
     39 H6         -9.1831    1.0364    0.8148 H         1 <0>         0.0665
     40 H7         -8.6348    2.4809   -0.0690 H         1 <0>         0.0603
     41 H8         -8.0059    0.8754   -0.5106 H         1 <0>         0.0430
     42 H9         -6.8894    0.7056    1.6970 H         1 <0>         0.0830
     43 H10        -7.5184    2.3112    2.1385 H         1 <0>         0.0908
     44 H11        -4.5779    1.6941    2.0963 H         1 <0>         0.0760
     45 H12        -4.0519    3.0975    1.1360 H         1 <0>         0.0595
     46 H13        -5.2851    3.2983    2.4037 H         1 <0>         0.0870
     47 H14        -3.1888   -1.7829   -3.9087 H         1 <0>         0.1379
     48 H15        -2.5938   -2.4169   -6.2149 H         1 <0>         0.1483
     49 H16        -2.1966   -0.6710   -7.9043 H         1 <0>         0.1487
     50 H17        -2.9618    3.4030   -5.1582 H         1 <0>         0.4363
     51 H18        -1.2651    2.2744   -7.5951 H         1 <0>         0.0837
     52 H19        -2.5952    1.6178   -8.5788 H         1 <0>         0.0854
     53 H20        -2.9231    2.8807   -7.3681 H         1 <0>         0.0686
     54 H21        -3.0224   -1.6772    0.4562 H         1 <0>         0.1358
     55 H22        -2.7531    0.0748    0.6182 H         1 <0>         0.0953
     56 H23        -0.9037   -3.1847   -0.0067 H         1 <0>         0.1798
     57 H24        -0.9583    1.9209    0.0170 H         1 <0>         0.1061
     58 H25         1.1449    3.1661    0.0078 H         1 <0>         0.1294
     59 H26         3.2965    1.9776   -0.0192 H         1 <0>         0.1345
     60 H27         3.3667   -0.4756   -0.0323 H         1 <0>         0.1290
     61 N4         -2.5391    0.6646   -1.9656 N.4       1 <0>        -0.4939
     62 H28        -1.5907    0.5458   -2.3405 H         1 <0>         0.4486
     63 H29        -2.5320    1.3917   -1.2407 H         1 <0>         0.4313
@<TRIPOS>BOND
     1    1    2 1
     2    1   39 1
     3    1   40 1
     4    1   41 1
     5    2    3 1
     6    2   42 1
     7    2   43 1
     8    3    4 1
     9    3    5 1
    10    3    6 1
    11    5   44 1
    12    5   45 1
    13    5   46 1
    14    6   16 am
    15    6    7 am
    16    7    8 2
    17    7    9 1
    18    9   10 1
    19    9   14 1
    20    9   11 1
    21   11   12 1
    22   11   28 1
    23   11   61 1
    24   13   25 1
    25   13   14 1
    26   13   18 1
    27   13   61 1
    28   14   15 1
    29   14   16 1
    30   16   17 2
    31   18   23 ar
    32   18   19 ar
    33   19   20 ar
    34   19   47 1
    35   20   21 ar
    36   20   48 1
    37   21   22 ar
    38   21   49 1
    39   22   23 ar
    40   22   27 1
    41   23   24 1
    42   24   25 am
    43   24   50 1
    44   25   26 2
    45   27   51 1
    46   27   52 1
    47   27   53 1
    48   28   29 1
    49   28   54 1
    50   28   55 1
    51   29   34 1
    52   29   30 2
    53   30   31 1
    54   30   56 1
    55   31   32 1
    56   31   33 1
    57   33   38 ar
    58   33   34 ar
    59   34   35 ar
    60   35   36 ar
    61   35   57 1
    62   36   37 ar
    63   36   58 1
    64   37   38 ar
    65   37   59 1
    66   38   60 1
    67   61   62 1
    68   61   63 1
@<TRIPOS>MOLECULE
ZINC14751748
   73    78     0     0     0
SMALL
USER_CHARGES

@<TRIPOS>ATOM
      1 C1         -0.4551    1.9159   -0.1184 C.3       1 <0>         0.0842
      2 N1         -0.3234    0.4585   -0.1885 N.am      1 <0>        -0.7172
      3 C2         -1.4223   -0.3204   -0.1425 C.2       1 <0>         0.6023
      4 O1         -2.5228    0.1864   -0.0428 O.2       1 <0>        -0.5361
      5 C3         -1.2895   -1.7898   -0.2132 C.2       1 <0>         0.0029
      6 C4         -2.3338   -2.7292   -0.1835 C.2       1 <0>        -0.1615
      7 C5         -1.7431   -3.9460   -0.2761 C.2       1 <0>         0.0172
      8 N2         -0.4181   -3.7398   -0.3540 N.pl3     1 <0>        -0.2528
      9 N3         -0.1653   -2.4768   -0.3225 N.2       1 <0>        -0.2485
     10 C6          0.5911   -4.7959   -0.4646 C.3       1 <0>         0.1140
     11 C7          0.8485   -5.1028   -1.9413 C.3       1 <0>        -0.1032
     12 C8         -0.4187   -5.6866   -2.5692 C.3       1 <0>        -0.1210
     13 C9         -0.1614   -5.9935   -4.0458 C.3       1 <0>        -0.1192
     14 C10         0.9797   -7.0057   -4.1650 C.3       1 <0>        -0.1228
     15 C11         2.2469   -6.4219   -3.5371 C.3       1 <0>        -0.1208
     16 C12         1.9896   -6.1150   -2.0605 C.3       1 <0>        -0.1120
     17 C13        -2.5004   -5.2490   -0.2862 C.3       1 <0>        -0.0570
     18 C14        -3.9727   -4.9492   -0.5950 C.3       1 <0>        -0.1336
     19 C15        -4.4751   -3.8338    0.3257 C.3       1 <0>         0.0192
     20 H1         -4.2186   -4.0719    1.3580 H         1 <0>         0.1437
     21 C16        -3.8167   -2.5057   -0.0717 C.3       1 <0>        -0.0493
     22 N4         -5.9338   -3.7142    0.1989 N.4       1 <0>        -0.5039
     23 C17        -6.4322   -2.7399    1.1789 C.3       1 <0>         0.0278
     24 C18        -6.2123   -3.2810    2.5931 C.3       1 <0>        -0.0968
     25 H2         -5.1477   -3.4486    2.7565 H         1 <0>         0.0971
     26 C19        -6.9675   -4.6014    2.7571 C.3       1 <0>        -0.1264
     27 C20        -8.4618   -4.3662    2.5277 C.3       1 <0>        -0.0891
     28 C21        -8.6817   -3.8251    1.1136 C.3       1 <0>        -0.1282
     29 C22        -7.9265   -2.5047    0.9495 C.3       1 <0>        -0.0966
     30 H3         -8.0832   -2.1193   -0.0579 H         1 <0>         0.1036
     31 C23        -8.4456   -1.4900    1.9702 C.3       1 <0>        -0.0991
     32 C24        -8.2257   -2.0311    3.3844 C.3       1 <0>         0.1347
     33 C25        -6.7314   -2.2663    3.6138 C.3       1 <0>        -0.1383
     34 C26        -8.9810   -3.3515    3.5484 C.3       1 <0>        -0.1438
     35 O2         -8.7106   -1.0834    4.3377 O.3       1 <0>        -0.5519
     36 H4          0.5332    2.3729   -0.1699 H         1 <0>         0.0825
     37 H5         -1.0615    2.2665   -0.9535 H         1 <0>         0.0653
     38 H6         -0.9348    2.1926    0.8204 H         1 <0>         0.0652
     39 H7          0.5547    0.0541   -0.2680 H         1 <0>         0.4104
     40 H8          1.5174   -4.4638    0.0042 H         1 <0>         0.1111
     41 H9          0.2325   -5.6951    0.0362 H         1 <0>         0.1055
     42 H10         1.1216   -4.1844   -2.4610 H         1 <0>         0.0854
     43 H11        -0.6919   -6.6049   -2.0495 H         1 <0>         0.0675
     44 H12        -1.2317   -4.9655   -2.4843 H         1 <0>         0.0616
     45 H13        -1.0642   -6.4094   -4.4932 H         1 <0>         0.0646
     46 H14         0.1118   -5.0751   -4.5656 H         1 <0>         0.0631
     47 H15         0.7066   -7.9240   -3.6453 H         1 <0>         0.0636
     48 H16         1.1631   -7.2243   -5.2170 H         1 <0>         0.0663
     49 H17         3.0599   -7.1430   -3.6220 H         1 <0>         0.0699
     50 H18         2.5201   -5.5035   -4.0568 H         1 <0>         0.0644
     51 H19         2.8924   -5.6991   -1.6131 H         1 <0>         0.0707
     52 H20         1.7165   -7.0333   -1.5407 H         1 <0>         0.0688
     53 H21        -2.0906   -5.9060   -1.0534 H         1 <0>         0.1112
     54 H22        -2.4200   -5.7281    0.6896 H         1 <0>         0.0962
     55 H23        -4.0684   -4.6328   -1.6337 H         1 <0>         0.0971
     56 H24        -4.5676   -5.8482   -0.4339 H         1 <0>         0.0981
     57 H25        -4.0185   -1.7530    0.6904 H         1 <0>         0.1070
     58 H26        -4.2114   -2.1725   -1.0316 H         1 <0>         0.0971
     59 H27        -6.1660   -3.4032   -0.7325 H         1 <0>         0.4268
     60 H28        -5.8941   -1.7992    1.0621 H         1 <0>         0.1476
     61 H29        -6.5977   -5.3243    2.0299 H         1 <0>         0.0602
     62 H30        -6.8109   -4.9869    3.7646 H         1 <0>         0.0933
     63 H31        -8.9999   -5.3069    2.6446 H         1 <0>         0.0916
     64 H32        -8.3119   -4.5480    0.3864 H         1 <0>         0.0613
     65 H33        -9.7463   -3.6575    0.9501 H         1 <0>         0.0951
     66 H34        -7.9076   -0.5493    1.8534 H         1 <0>         0.0847
     67 H35        -9.5102   -1.3224    1.8068 H         1 <0>         0.0929
     68 H36        -6.5747   -2.6518    4.6212 H         1 <0>         0.0867
     69 H37        -6.1934   -1.3256    3.4969 H         1 <0>         0.0853
     70 H38       -10.0455   -3.1839    3.3850 H         1 <0>         0.0818
     71 H39        -8.8243   -3.7369    4.5559 H         1 <0>         0.0750
     72 H40        -8.6034   -1.3610    5.2578 H         1 <0>         0.3848
     73 H41        -6.3610   -4.6121    0.3700 H         1 <0>         0.4228
@<TRIPOS>BOND
     1    1    2 1
     2    1   36 1
     3    1   37 1
     4    1   38 1
     5    2    3 am
     6    2   39 1
     7    3    4 2
     8    3    5 1
     9    5    9 2
    10    5    6 1
    11    6   21 1
    12    6    7 2
    13    7    8 1
    14    7   17 1
    15    8    9 1
    16    8   10 1
    17   10   11 1
    18   10   40 1
    19   10   41 1
    20   11   16 1
    21   11   12 1
    22   11   42 1
    23   12   13 1
    24   12   43 1
    25   12   44 1
    26   13   14 1
    27   13   45 1
    28   13   46 1
    29   14   15 1
    30   14   47 1
    31   14   48 1
    32   15   16 1
    33   15   49 1
    34   15   50 1
    35   16   51 1
    36   16   52 1
    37   17   18 1
    38   17   53 1
    39   17   54 1
    40   18   19 1
    41   18   55 1
    42   18   56 1
    43   19   20 1
    44   19   21 1
    45   19   22 1
    46   21   57 1
    47   21   58 1
    48   22   23 1
    49   22   59 1
    50   22   73 1
    51   23   29 1
    52   23   24 1
    53   23   60 1
    54   24   25 1
    55   24   33 1
    56   24   26 1
    57   26   27 1
    58   26   61 1
    59   26   62 1
    60   27   34 1
    61   27   28 1
    62   27   63 1
    63   28   29 1
    64   28   64 1
    65   28   65 1
    66   29   30 1
    67   29   31 1
    68   31   32 1
    69   31   66 1
    70   31   67 1
    71   32   33 1
    72   32   34 1
    73   32   35 1
    74   33   68 1
    75   33   69 1
    76   34   70 1
    77   34   71 1
    78   35   72 1
@<TRIPOS>MOLECULE
ZINC40779940
   48    51     0     0     0
SMALL
USER_CHARGES

@<TRIPOS>ATOM
      1 C1         -0.0288    1.3718    0.2322 C.ar      1 <0>        -0.1240
      2 C2          1.1567    2.0835    0.2326 C.ar      1 <0>        -0.0882
      3 C3          2.3675    1.4166    0.1931 C.ar      1 <0>        -0.1491
      4 C4          2.3958    0.0346    0.1531 C.ar      1 <0>         0.0928
      5 C5          1.2047   -0.6833    0.1526 C.ar      1 <0>         0.1271
      6 C6         -0.0082   -0.0090    0.1922 C.ar      1 <0>        -0.0970
      7 N1          1.2287   -2.0809    0.1117 N.pl3     1 <0>        -0.6683
      8 C7          1.2569   -2.8652    1.3543 C.3       1 <0>         0.1293
      9 C8          0.0795   -3.8480    1.3403 C.3       1 <0>         0.1273
     10 N2          0.0765   -4.5589    0.0540 N.pl3     1 <0>        -0.6547
     11 C9          0.0483   -3.7746   -1.1885 C.3       1 <0>         0.1275
     12 C10         1.2200   -2.7919   -1.1745 C.3       1 <0>         0.1285
     13 C11         0.1003   -5.9477    0.0134 C.ar      1 <0>         0.4395
     14 C12        -1.0846   -6.6805    0.1111 C.ar      1 <0>         0.1231
     15 C13        -1.0040   -8.0729    0.0643 C.ar      1 <0>         0.3828
     16 N3          0.1901   -8.6454   -0.0707 N.ar      1 <0>        -0.4837
     17 C14         1.2842   -7.9171   -0.1594 C.ar      1 <0>         0.3304
     18 N4          1.2518   -6.6000   -0.1246 N.ar      1 <0>        -0.4581
     19 N5         -2.1537   -8.8505    0.1576 N.pl3     1 <0>        -0.6233
     20 C15        -2.0516  -10.2357    0.2464 C.ar      1 <0>         0.3641
     21 C16        -3.1960  -10.9991    0.4539 C.ar      1 <0>        -0.1748
     22 C17        -3.0806  -12.3747    0.5397 C.ar      1 <0>         0.0091
     23 C18        -1.8190  -12.9432    0.4147 C.ar      1 <0>        -0.1627
     24 C19        -0.7256  -12.1243    0.2099 C.ar      1 <0>         0.1862
     25 N6         -0.8672  -10.8150    0.1272 N.ar      1 <0>        -0.5520
     26 Br1        -1.6009  -14.8184    0.5244 Br        1 <0>         0.0097
     27 N7         -2.3228   -6.0340    0.2530 N.pl3     1 <0>        -0.8319
     28 F1          3.5786   -0.6170    0.1141 F         1 <0>        -0.1339
     29 H1         -0.9723    1.8961    0.2676 H         1 <0>         0.1317
     30 H2          1.1370    3.1628    0.2634 H         1 <0>         0.1356
     31 H3          3.2916    1.9755    0.1932 H         1 <0>         0.1377
     32 H4         -0.9350   -0.5635    0.1923 H         1 <0>         0.1287
     33 H5          2.1942   -3.4180    1.4168 H         1 <0>         0.0616
     34 H6          1.1655   -2.1971    2.2107 H         1 <0>         0.0840
     35 H7          0.1915   -4.5646    2.1540 H         1 <0>         0.0787
     36 H8         -0.8556   -3.3004    1.4579 H         1 <0>         0.0735
     37 H9          0.1397   -4.4427   -2.0449 H         1 <0>         0.0798
     38 H10        -0.8890   -3.2218   -1.2511 H         1 <0>         0.0737
     39 H11         1.1043   -2.0754   -1.9877 H         1 <0>         0.0835
     40 H12         2.1546   -3.3393   -1.2962 H         1 <0>         0.0621
     41 H13         2.2367   -8.4145   -0.2678 H         1 <0>         0.2428
     42 H14        -3.0265   -8.4273    0.1608 H         1 <0>         0.4472
     43 H15        -4.1614  -10.5240    0.5470 H         1 <0>         0.1624
     44 H16        -3.9514  -12.9929    0.7007 H         1 <0>         0.1672
     45 H17         0.2571  -12.5615    0.1125 H         1 <0>         0.1890
     46 H18        -2.3723   -5.0662    0.2110 H         1 <0>         0.4275
     47 H19        -3.1289   -6.5552    0.3929 H         1 <0>         0.4066
     48 H20         0.2556   -9.6127   -0.1038 H         1 <0>         0.4511
@<TRIPOS>BOND
     1    1    6 ar
     2    1    2 ar
     3    1   29 1
     4    2    3 ar
     5    2   30 1
     6    3    4 ar
     7    3   31 1
     8    4    5 ar
     9    4   28 1
    10    5    6 ar
    11    5    7 1
    12    6   32 1
    13    7   12 1
    14    7    8 1
    15    8    9 1
    16    8   33 1
    17    8   34 1
    18    9   10 1
    19    9   35 1
    20    9   36 1
    21   10   11 1
    22   10   13 1
    23   11   12 1
    24   11   37 1
    25   11   38 1
    26   12   39 1
    27   12   40 1
    28   13   18 ar
    29   13   14 ar
    30   14   15 ar
    31   14   27 1
    32   15   16 ar
    33   15   19 1
    34   16   17 ar
    35   16   48 1
    36   17   18 ar
    37   17   41 1
    38   19   20 1
    39   19   42 1
    40   20   25 ar
    41   20   21 ar
    42   21   22 ar
    43   21   43 1
    44   22   23 ar
    45   22   44 1
    46   23   24 ar
    47   23   26 1
    48   24   25 ar
    49   24   45 1
    50   27   46 1
    51   27   47 1
@<TRIPOS>MOLECULE
ZINC59258745
   53    55     0     0     0
SMALL
USER_CHARGES

@<TRIPOS>ATOM
      1 C1         -0.2627    1.5946   -0.2011 C.3       1 <0>        -0.1849
      2 C2         -0.1744    0.0686   -0.1338 C.3       1 <0>         0.0070
      3 H1          0.5589   -0.2852   -0.8585 H         1 <0>         0.1664
      4 C3          0.2462   -0.3496    1.2516 C.2       1 <0>         0.5094
      5 O1         -0.5573   -0.8653    1.9996 O.2       1 <0>        -0.5039
      6 N1          1.5153   -0.1506    1.6594 N.am      1 <0>        -0.6418
      7 C4          1.9302   -0.6205    2.9115 C.ar      1 <0>         0.1339
      8 C5          1.0437   -0.6285    3.9801 C.ar      1 <0>        -0.0905
      9 C6          1.4553   -1.0924    5.2141 C.ar      1 <0>        -0.0853
     10 C7          2.7503   -1.5489    5.3869 C.ar      1 <0>        -0.0248
     11 C8          3.6364   -1.5424    4.3243 C.ar      1 <0>        -0.0822
     12 C9          3.2281   -1.0850    3.0855 C.ar      1 <0>        -0.0424
     13 Cl1         4.3379   -1.0836    1.7506 Cl        1 <0>        -0.0419
     14 Cl2         3.2641   -2.1302    6.9399 Cl        1 <0>        -0.0360
     15 N2         -1.4879   -0.5120   -0.4429 N.4       1 <0>        -0.3714
     16 C10        -1.9661    0.0183   -1.7253 C.3       1 <0>        -0.0123
     17 C11        -3.3691   -0.5205   -2.0131 C.3       1 <0>        -0.1269
     18 C12        -3.3193   -2.0497   -2.0780 C.3       1 <0>        -0.1204
     19 C13        -2.7493   -2.5883   -0.7626 C.3       1 <0>        -0.1372
     20 C14        -1.3693   -1.9729   -0.5211 C.3       1 <0>        -0.0104
     21 C15        -4.7107   -2.5909   -2.2833 C.2       1 <0>         0.5158
     22 O2         -5.6510   -1.8295   -2.3696 O.2       1 <0>        -0.5027
     23 N3         -4.9103   -3.9209   -2.3712 N.am      1 <0>        -0.6604
     24 C16        -6.1864   -4.4200   -2.6641 C.ar      1 <0>         0.1236
     25 C17        -7.0380   -3.7070   -3.4952 C.ar      1 <0>        -0.0991
     26 C18        -8.2968   -4.2020   -3.7831 C.ar      1 <0>        -0.0244
     27 C19        -8.7096   -5.4075   -3.2434 C.ar      1 <0>        -0.1002
     28 C20        -7.8657   -6.1226   -2.4141 C.ar      1 <0>        -0.1095
     29 C21        -6.6009   -5.6361   -2.1260 C.ar      1 <0>         0.0880
     30 O3         -5.7678   -6.3418   -1.3152 O.3       1 <0>        -0.4914
     31 Cl3        -9.3617   -3.3089   -4.8234 Cl        1 <0>        -0.0503
     32 H2          0.7119    2.0254    0.0283 H         1 <0>         0.1126
     33 H3         -0.5670    1.8971   -1.2031 H         1 <0>         0.1050
     34 H4         -0.9960    1.9484    0.5237 H         1 <0>         0.0935
     35 H5          2.1413    0.3182    1.0855 H         1 <0>         0.4227
     36 H6          0.0331   -0.2718    3.8464 H         1 <0>         0.1582
     37 H7          0.7658   -1.0986    6.0454 H         1 <0>         0.1511
     38 H8          4.6466   -1.8988    4.4619 H         1 <0>         0.1563
     39 H9         -1.9979    1.1069   -1.6787 H         1 <0>         0.1436
     40 H10        -1.2884   -0.2907   -2.5211 H         1 <0>         0.1360
     41 H11        -4.0477   -0.2118   -1.2180 H         1 <0>         0.1012
     42 H12        -3.7216   -0.1270   -2.9665 H         1 <0>         0.1256
     43 H13        -2.6809   -2.3588   -2.9056 H         1 <0>         0.1224
     44 H14        -3.4151   -2.3225    0.0585 H         1 <0>         0.0996
     45 H15        -2.6588   -3.6729   -0.8222 H         1 <0>         0.1192
     46 H16        -0.7043   -2.2395   -1.3426 H         1 <0>         0.1337
     47 H17        -0.9605   -2.3544    0.4145 H         1 <0>         0.1412
     48 H18        -4.1705   -4.5326   -2.2316 H         1 <0>         0.4174
     49 H19        -6.7182   -2.7656   -3.9170 H         1 <0>         0.1494
     50 H20        -9.6935   -5.7906   -3.4704 H         1 <0>         0.1453
     51 H21        -8.1909   -7.0629   -1.9941 H         1 <0>         0.1482
     52 H22        -5.8536   -6.1232   -0.3771 H         1 <0>         0.3927
     53 H23        -2.1424   -0.2672    0.2850 H         1 <0>         0.4312
@<TRIPOS>BOND
     1    1    2 1
     2    1   32 1
     3    1   33 1
     4    1   34 1
     5    2    3 1
     6    2    4 1
     7    2   15 1
     8    4    5 2
     9    4    6 am
    10    6    7 1
    11    6   35 1
    12    7   12 ar
    13    7    8 ar
    14    8    9 ar
    15    8   36 1
    16    9   10 ar
    17    9   37 1
    18   10   11 ar
    19   10   14 1
    20   11   12 ar
    21   11   38 1
    22   12   13 1
    23   15   20 1
    24   15   16 1
    25   15   53 1
    26   16   17 1
    27   16   39 1
    28   16   40 1
    29   17   18 1
    30   17   41 1
    31   17   42 1
    32   18   19 1
    33   18   21 1
    34   18   43 1
    35   19   20 1
    36   19   44 1
    37   19   45 1
    38   20   46 1
    39   20   47 1
    40   21   22 2
    41   21   23 am
    42   23   24 1
    43   23   48 1
    44   24   29 ar
    45   24   25 ar
    46   25   26 ar
    47   25   49 1
    48   26   27 ar
    49   26   31 1
    50   27   28 ar
    51   27   50 1
    52   28   29 ar
    53   28   51 1
    54   29   30 1
    55   30   52 1
@<TRIPOS>MOLECULE
ZINC64349061
   66    70     0     0     0
SMALL
USER_CHARGES

@<TRIPOS>ATOM
      1 C1          1.2284    1.4893    1.2803 C.ar      1 <0>        -0.1157
      2 C2          2.2355    2.1417    0.5935 C.ar      1 <0>        -0.1114
      3 C3          3.1512    1.4137   -0.1388 C.ar      1 <0>        -0.1067
      4 C4          3.0682    0.0298   -0.1891 C.ar      1 <0>        -0.1154
      5 C5          2.0661   -0.6202    0.4987 C.ar      1 <0>        -0.0888
      6 C6          1.1447    0.1123    1.2319 C.ar      1 <0>        -0.1169
      7 C7          1.9420   -2.1222    0.4837 C.3       1 <0>        -0.0994
      8 C8          2.7550   -2.7016   -0.6743 C.3       1 <0>         0.0699
      9 H1          2.2841   -2.4367   -1.6210 H         1 <0>         0.1126
     10 N1          4.1123   -2.1353   -0.6218 N.3       1 <0>        -0.6555
     11 C9          4.0872   -0.7204   -1.0060 C.3       1 <0>         0.0938
     12 C10         2.8227   -4.2015   -0.5448 C.2       1 <0>         0.5337
     13 O1          3.7893   -4.7228   -0.0302 O.2       1 <0>        -0.5195
     14 N2          1.8089   -4.9637   -1.0008 N.am      1 <0>        -0.7148
     15 C11         1.8239   -6.4117   -0.7788 C.3       1 <0>         0.1281
     16 H2          2.7585   -6.6954   -0.2950 H         1 <0>         0.1366
     17 C12         0.6467   -6.8025    0.1171 C.3       1 <0>        -0.1008
     18 C13         0.8571   -6.2370    1.4980 C.2       1 <0>         0.0696
     19 C14         0.3519   -5.0827    1.9897 C.ar      1 <0>        -0.1651
     20 C15        -0.5106   -4.0472    1.4079 C.ar      1 <0>        -0.0141
     21 C16        -0.8558   -2.9802    2.1638 C.ar      1 <0>        -0.1519
     22 C17        -0.4114   -2.8386    3.4856 C.ar      1 <0>         0.0509
     23 C18         0.3831   -3.7478    4.0892 C.ar      1 <0>        -0.2061
     24 C19         0.8073   -4.9099    3.3876 C.ar      1 <0>         0.3284
     25 N3          1.5646   -5.9181    3.7462 N.pl3     1 <0>        -0.5810
     26 C20         1.6703   -6.8486    2.6168 C.3       1 <0>         0.0594
     27 C21         1.7065   -7.1239   -2.1017 C.2       1 <0>         0.5055
     28 O2          1.6190   -6.4849   -3.1287 O.2       1 <0>        -0.5080
     29 N4          1.6988   -8.4710   -2.1434 N.am      1 <0>        -0.7204
     30 C22         1.5847   -9.1634   -3.4294 C.3       1 <0>         0.1433
     31 C23         0.1085   -9.2893   -3.8116 C.3       1 <0>        -0.1260
     32 C24        -0.0106  -10.0124   -5.1547 C.3       1 <0>        -0.1197
     33 C25         0.6071  -11.4074   -5.0394 C.3       1 <0>        -0.1240
     34 C26         2.0833  -11.2815   -4.6572 C.3       1 <0>        -0.1186
     35 C27         2.2024  -10.5584   -3.3141 C.3       1 <0>        -0.1261
     36 H3          0.5116    2.0553    1.8567 H         1 <0>         0.1259
     37 H4          2.3053    3.2188    0.6298 H         1 <0>         0.1276
     38 H5          3.9367    1.9243   -0.6760 H         1 <0>         0.1279
     39 H6          0.3576   -0.3972    1.7679 H         1 <0>         0.1167
     40 H7          2.3149   -2.5256    1.4251 H         1 <0>         0.0732
     41 H8          0.8942   -2.3975    0.3635 H         1 <0>         0.0828
     42 H9          4.5185   -2.2541    0.2941 H         1 <0>         0.3534
     43 H10         3.8329   -0.6385   -2.0628 H         1 <0>         0.0947
     44 H11         5.0727   -0.2848   -0.8410 H         1 <0>         0.0982
     45 H12         1.0694   -4.5534   -1.4759 H         1 <0>         0.4130
     46 H13        -0.2770   -6.4035   -0.3021 H         1 <0>         0.1213
     47 H14         0.5797   -7.8888    0.1756 H         1 <0>         0.1278
     48 H15        -0.8639   -4.1359    0.3912 H         1 <0>         0.1591
     49 H16        -1.4903   -2.2172    1.7377 H         1 <0>         0.1585
     50 H17        -0.7168   -1.9660    4.0439 H         1 <0>         0.1605
     51 H18         0.6985   -3.5917    5.1102 H         1 <0>         0.1606
     52 H19         1.2620   -7.8217    2.8896 H         1 <0>         0.1764
     53 H20         2.7120   -6.9497    2.3122 H         1 <0>         0.1757
     54 H21         1.7688   -8.9821   -1.3219 H         1 <0>         0.3986
     55 H22         2.1113   -8.5950   -4.1960 H         1 <0>         0.0926
     56 H23        -0.4181   -9.8576   -3.0450 H         1 <0>         0.0641
     57 H24        -0.3315   -8.2955   -3.8937 H         1 <0>         0.0662
     58 H25        -1.0622  -10.1021   -5.4270 H         1 <0>         0.0682
     59 H26         0.5160   -9.4440   -5.9213 H         1 <0>         0.0663
     60 H27         0.0805  -11.9757   -4.2727 H         1 <0>         0.0634
     61 H28         0.5222  -11.9225   -5.9962 H         1 <0>         0.0679
     62 H29         2.5233  -12.2753   -4.5750 H         1 <0>         0.0711
     63 H30         2.6099  -10.7131   -5.4238 H         1 <0>         0.0673
     64 H31         3.2540  -10.4687   -3.0418 H         1 <0>         0.0700
     65 H32         1.6758  -11.1267   -2.5475 H         1 <0>         0.0689
     66 H33         1.9820   -6.0319    4.6144 H         1 <0>         0.4563
@<TRIPOS>BOND
     1    1    6 ar
     2    1    2 ar
     3    1   36 1
     4    2    3 ar
     5    2   37 1
     6    3    4 ar
     7    3   38 1
     8    4   11 1
     9    4    5 ar
    10    5    6 ar
    11    5    7 1
    12    6   39 1
    13    7    8 1
    14    7   40 1
    15    7   41 1
    16    8    9 1
    17    8   10 1
    18    8   12 1
    19   10   11 1
    20   10   42 1
    21   11   43 1
    22   11   44 1
    23   12   13 2
    24   12   14 am
    25   14   15 1
    26   14   45 1
    27   15   16 1
    28   15   17 1
    29   15   27 1
    30   17   18 1
    31   17   46 1
    32   17   47 1
    33   18   26 1
    34   18   19 2
    35   19   24 ar
    36   19   20 ar
    37   20   21 ar
    38   20   48 1
    39   21   22 ar
    40   21   49 1
    41   22   23 ar
    42   22   50 1
    43   23   24 ar
    44   23   51 1
    45   24   25 2
    46   25   26 1
    47   25   66 1
    48   26   52 1
    49   26   53 1
    50   27   28 2
    51   27   29 am
    52   29   30 1
    53   29   54 1
    54   30   35 1
    55   30   31 1
    56   30   55 1
    57   31   32 1
    58   31   56 1
    59   31   57 1
    60   32   33 1
    61   32   58 1
    62   32   59 1
    63   33   34 1
    64   33   60 1
    65   33   61 1
    66   34   35 1
    67   34   62 1
    68   34   63 1
    69   35   64 1
    70   35   65 1
@<TRIPOS>MOLECULE
ZINC13273454
   45    47     0     0     0
SMALL
USER_CHARGES
2-[[5-[[(3S)-1,1-dioxothiolan-3-yl]methyl]-4-methyl-1,2,4-triazol-3-yl]sulfanyl]-5-sulfamoyl-benzoic acid
@<TRIPOS>ATOM
      1 C1         -0.0082    1.6205    0.2777 C.3       1 <0>         0.0739
      2 N1          0.0337    0.1666    0.1031 N.pl3     1 <0>        -0.4672
      3 C2          0.2463   -0.7749    1.0707 C.2       1 <0>         0.1575
      4 N2          0.2042   -1.9421    0.4924 N.2       1 <0>        -0.2756
      5 N3         -0.0189   -1.8032   -0.7657 N.2       1 <0>        -0.2853
      6 C3         -0.1376   -0.5294   -1.0591 C.2       1 <0>         0.1826
      7 S1         -0.4537    0.1536   -2.6523 S.3       1 <0>         0.1482
      8 C4         -0.7134   -1.2563   -3.6767 C.ar      1 <0>        -0.0690
      9 C5         -2.0013   -1.6182   -4.0541 C.ar      1 <0>        -0.0935
     10 C6         -2.2018   -2.7221   -4.8563 C.ar      1 <0>        -0.0385
     11 C7         -1.1247   -3.4788   -5.2920 C.ar      1 <0>        -0.6628
     12 C8          0.1589   -3.1370   -4.9286 C.ar      1 <0>         0.0183
     13 C9          0.3803   -2.0174   -4.1211 C.ar      1 <0>        -0.0712
     14 C10         1.7508   -1.6418   -3.7345 C.2       1 <0>         0.4851
     15 O1          1.9383   -0.6704   -3.0286 O.co2     1 <0>        -0.5978
     16 S2         -1.3999   -4.8862   -6.3159 S.o2      1 <0>         2.7020
     17 O2         -0.2790   -5.7417   -6.1403 O.2       1 <0>        -0.9579
     18 O3         -2.7318   -5.3149   -6.0676 O.2       1 <0>        -0.9688
     19 N4         -1.3558   -4.3648   -7.8871 N.pl3     1 <0>        -1.2500
     20 C11         0.4851   -0.5119    2.5352 C.3       1 <0>        -0.0075
     21 C12         1.9707   -0.2282    2.7668 C.3       1 <0>        -0.0974
     22 H1          2.2990    0.5753    2.1075 H         1 <0>         0.0964
     23 C13         2.1999    0.1762    4.2325 C.3       1 <0>        -0.1161
     24 C14         3.7132    0.1524    4.5561 C.3       1 <0>        -0.5824
     25 S3          4.3559   -1.1152    3.3888 S.o2      1 <0>         2.3640
     26 O4          5.2685   -0.4973    2.4918 O.2       1 <0>        -0.9335
     27 O5          4.7665   -2.2577    4.1272 O.2       1 <0>        -0.9412
     28 C15         2.8012   -1.5124    2.4832 C.3       1 <0>        -0.5623
     29 H2          1.0048    2.0208    0.2357 H         1 <0>         0.0840
     30 H3         -0.6076    2.0648   -0.5170 H         1 <0>         0.0916
     31 H4         -0.4529    1.8578    1.2441 H         1 <0>         0.0886
     32 H5         -2.8458   -1.0343   -3.7192 H         1 <0>         0.1387
     33 H6         -3.2044   -2.9986   -5.1474 H         1 <0>         0.1439
     34 H7          0.9939   -3.7302   -5.2711 H         1 <0>         0.1571
     35 H8         -1.1985   -3.4278   -8.0829 H         1 <0>         0.4176
     36 H9         -1.4871   -4.9963   -8.6115 H         1 <0>         0.4179
     37 H10        -0.1028    0.3502    2.8502 H         1 <0>         0.0887
     38 H11         0.1876   -1.3860    3.1146 H         1 <0>         0.1060
     39 H12         1.8107    1.1813    4.3957 H         1 <0>         0.0959
     40 H13         1.6798   -0.5237    4.8866 H         1 <0>         0.0909
     41 H14         4.1659    1.1242    4.3590 H         1 <0>         0.1371
     42 H15         3.8829   -0.1519    5.5889 H         1 <0>         0.1398
     43 H16         2.3167   -2.3953    2.9001 H         1 <0>         0.1462
     44 H17         2.9868   -1.6341    1.4160 H         1 <0>         0.1448
     45 O6          2.7970   -2.3752   -4.1634 O.co2     1 <0>        -0.7387
@<TRIPOS>BOND
     1    1    2 1
     2    1   29 1
     3    1   30 1
     4    1   31 1
     5    2    6 1
     6    2    3 1
     7    3    4 2
     8    3   20 1
     9    4    5 1
    10    5    6 2
    11    6    7 1
    12    7    8 1
    13    8   13 ar
    14    8    9 ar
    15    9   10 ar
    16    9   32 1
    17   10   11 ar
    18   10   33 1
    19   11   12 ar
    20   11   16 1
    21   12   13 ar
    22   12   34 1
    23   13   14 1
    24   14   15 2
    25   14   45 1
    26   16   17 2
    27   16   18 2
    28   16   19 1
    29   19   35 1
    30   19   36 1
    31   20   21 1
    32   20   37 1
    33   20   38 1
    34   21   22 1
    35   21   28 1
    36   21   23 1
    37   23   24 1
    38   23   39 1
    39   23   40 1
    40   24   25 1
    41   24   41 1
    42   24   42 1
    43   25   26 2
    44   25   27 2
    45   25   28 1
    46   28   43 1
    47   28   44 1
@<TRIPOS>MOLECULE
ZINC27516315
   60    63     0     0     0
SMALL
USER_CHARGES
(2S)-2-[[(2R,4aS,6S,7S,8S,8aR)-7-acetamido-2-(2-furyl)-6-(2-methoxyphenoxy)-4,4a,6,7,8,8a-hexahydropyrano[3,2-d][1,3]dioxin-8-yl]oxy]propanoic acid
@<TRIPOS>ATOM
      1 C1          7.3597    4.4412   -1.7011 C.3       1 <0>        -0.1489
      2 C2          6.6751    5.2318   -0.5843 C.3       1 <0>         0.0524
      3 H1          6.1858    4.5675    0.1432 H         1 <0>         0.0492
      4 C3          7.6885    6.1099    0.1035 C.2       1 <0>         0.4698
      5 O1          7.5399    7.3089    0.1152 O.co2     1 <0>        -0.6143
      6 O2          8.7562    5.5601    0.7030 O.co2     1 <0>        -0.7631
      7 O3          5.6404    6.0447   -1.1415 O.3       1 <0>        -0.3418
      8 C4          4.3579    5.4150   -1.1694 C.3       1 <0>         0.0915
      9 H2          4.5667    4.3361   -1.1213 H         1 <0>         0.0831
     10 C5          3.5220    5.8946    0.0237 C.3       1 <0>         0.1324
     11 H3          3.4687    6.9931    0.0435 H         1 <0>         0.1273
     12 C6          2.1175    5.2941   -0.0567 C.3       1 <0>         0.2410
     13 H4          1.4508    5.6597    0.7382 H         1 <0>         0.1202
     14 O4          1.5117    5.6309   -1.3091 O.3       1 <0>        -0.3746
     15 C7          2.2346    5.1408   -2.4361 C.3       1 <0>         0.0317
     16 H5          2.2695    4.0514   -2.2880 H         1 <0>         0.0903
     17 C8          3.6239    5.7910   -2.4566 C.3       1 <0>         0.0623
     18 H6          3.5882    6.8844   -2.5718 H         1 <0>         0.1007
     19 O5          4.3280    5.3237   -3.6069 O.3       1 <0>        -0.3575
     20 C9          3.6588    5.6273   -4.8360 C.3       1 <0>         0.3306
     21 H7          4.2247    5.1536   -5.6518 H         1 <0>         0.1715
     22 O6          2.3482    5.0593   -4.8346 O.3       1 <0>        -0.3651
     23 C10         1.5207    5.4839   -3.7443 C.3       1 <0>         0.0669
     24 C11         3.5552    7.1225   -4.9925 C.2       1 <0>        -0.0849
     25 C12         2.9871    7.7677   -6.0271 C.2       1 <0>        -0.1766
     26 C13         3.1115    9.1515   -5.7651 C.2       1 <0>        -0.2251
     27 C14         3.7483    9.2691   -4.5861 C.2       1 <0>        -0.0219
     28 O7          4.0094    8.0369   -4.1200 O.3       1 <0>        -0.1511
     29 O8          2.2020    3.8725    0.0622 O.3       1 <0>        -0.3111
     30 C15         1.0289    3.1866    0.1158 C.ar      1 <0>         0.1006
     31 C16        -0.1766    3.8670    0.0558 C.ar      1 <0>        -0.1578
     32 C17        -1.3682    3.1683    0.1109 C.ar      1 <0>        -0.1202
     33 C18        -1.3605    1.7901    0.2201 C.ar      1 <0>        -0.1170
     34 C19        -0.1612    1.1056    0.2862 C.ar      1 <0>        -0.1787
     35 C20         1.0367    1.7999    0.2315 C.ar      1 <0>         0.1016
     36 O9          2.2173    1.1276    0.2903 O.3       1 <0>        -0.3036
     37 C21         2.1487   -0.2949    0.4083 C.3       1 <0>         0.0242
     38 N1          4.1637    5.4688    1.2700 N.am      1 <0>        -0.7214
     39 C22         3.9681    6.1719    2.4031 C.2       1 <0>         0.5226
     40 O10         3.2610    7.1572    2.3909 O.2       1 <0>        -0.5560
     41 C23         4.6282    5.7339    3.6851 C.3       1 <0>        -0.1763
     42 H8          6.6200    3.8003   -2.2031 H         1 <0>         0.0458
     43 H9          8.1561    3.8154   -1.2721 H         1 <0>         0.0701
     44 H10         7.7951    5.1396   -2.4309 H         1 <0>         0.0579
     45 H11         0.5525    4.9631   -3.7811 H         1 <0>         0.1138
     46 H12         1.3551    6.5701   -3.7977 H         1 <0>         0.0709
     47 H13         2.5241    7.3154   -6.8917 H         1 <0>         0.1508
     48 H14         2.7626    9.9591   -6.3915 H         1 <0>         0.1497
     49 H15         4.0018   10.1970   -4.0950 H         1 <0>         0.2043
     50 H16        -0.1854    4.9433   -0.0336 H         1 <0>         0.1413
     51 H17        -2.3072    3.6998    0.0637 H         1 <0>         0.1255
     52 H18        -2.2934    1.2473    0.2580 H         1 <0>         0.1243
     53 H19        -0.1580    0.0293    0.3760 H         1 <0>         0.1328
     54 H20         3.1670   -0.7093    0.4453 H         1 <0>         0.1024
     55 H21         1.6154   -0.7095   -0.4598 H         1 <0>         0.0538
     56 H22         1.6109   -0.5608    1.3303 H         1 <0>         0.0538
     57 H23         4.8052    4.5753    1.2810 H         1 <0>         0.4260
     58 H24         4.3527    6.4261    4.4944 H         1 <0>         0.0909
     59 H25         5.7205    5.7379    3.5551 H         1 <0>         0.0970
     60 H26         4.2932    4.7180    3.9415 H         1 <0>         0.0861
@<TRIPOS>BOND
     1    1    2 1
     2    1   42 1
     3    1   43 1
     4    1   44 1
     5    2    3 1
     6    2    4 1
     7    2    7 1
     8    4    5 2
     9    4    6 1
    10    7    8 1
    11    8    9 1
    12    8   17 1
    13    8   10 1
    14   10   11 1
    15   10   12 1
    16   10   38 1
    17   12   13 1
    18   12   14 1
    19   12   29 1
    20   14   15 1
    21   15   16 1
    22   15   23 1
    23   15   17 1
    24   17   18 1
    25   17   19 1
    26   19   20 1
    27   20   21 1
    28   20   22 1
    29   20   24 1
    30   22   23 1
    31   23   45 1
    32   23   46 1
    33   24   28 1
    34   24   25 2
    35   25   26 1
    36   25   47 1
    37   26   27 2
    38   26   48 1
    39   27   28 1
    40   27   49 1
    41   29   30 1
    42   30   35 ar
    43   30   31 ar
    44   31   32 ar
    45   31   50 1
    46   32   33 ar
    47   32   51 1
    48   33   34 ar
    49   33   52 1
    50   34   35 ar
    51   34   53 1
    52   35   36 1
    53   36   37 1
    54   37   54 1
    55   37   55 1
    56   37   56 1
    57   38   39 am
    58   38   57 1
    59   39   40 2
    60   39   41 1
    61   41   58 1
    62   41   59 1
    63   41   60 1
@<TRIPOS>MOLECULE
ZINC38507376
   50    53     0     0     0
SMALL
USER_CHARGES

@<TRIPOS>ATOM
      1 C1          0.4100    2.1563   -1.1895 C.3       1 <0>        -0.0668
      2 C2          0.5985    0.6748   -0.9875 C.2       1 <0>         0.0826
      3 C3          0.3959   -0.3138   -1.9553 C.2       1 <0>        -0.2711
      4 C4          0.6699   -1.5189   -1.3855 C.2       1 <0>         0.3409
      5 N1          1.0344   -1.2855   -0.0932 N.pl3     1 <0>        -0.3154
      6 N2          0.9845    0.0979    0.1214 N.2       1 <0>        -0.2494
      7 C5          1.3968   -2.2499    0.8452 C.ar      1 <0>         0.6291
      8 N3          1.4037   -3.5258    0.4797 N.ar      1 <0>        -0.6692
      9 C6          1.7409   -4.4820    1.3333 C.ar      1 <0>         0.5270
     10 O1          1.7455   -5.7806    0.9513 O.3       1 <0>        -0.6642
     11 C7          2.0945   -4.1169    2.6452 C.ar      1 <0>        -0.3698
     12 C8          2.4972   -4.8266    3.7978 C.2       1 <0>         0.1284
     13 N4          2.7029   -3.9714    4.7582 N.2       1 <0>        -0.3000
     14 N5          2.4508   -2.6732    4.2969 N.pl3     1 <0>        -0.3929
     15 C9          2.0731   -2.7505    2.9891 C.ar      1 <0>         0.3760
     16 N6          1.7256   -1.8597    2.0629 N.ar      1 <0>        -0.6037
     17 C10         2.5724   -1.4437    5.0840 C.3       1 <0>         0.1197
     18 N7          0.5917   -2.7622   -2.0083 N.am      1 <0>        -0.6221
     19 C11         0.2147   -2.8466   -3.2995 C.2       1 <0>         0.5636
     20 O2         -0.0572   -1.8372   -3.9207 O.2       1 <0>        -0.4768
     21 C12         0.1318   -4.1639   -3.9594 C.ar      1 <0>        -0.0485
     22 C13         1.2398   -5.0161   -3.9637 C.ar      1 <0>        -0.1398
     23 C14         1.1571   -6.2481   -4.5822 C.ar      1 <0>         0.1583
     24 C15        -0.0300   -6.6394   -5.2005 C.ar      1 <0>         0.1225
     25 C16        -1.1300   -5.7931   -5.1961 C.ar      1 <0>        -0.1212
     26 C17        -1.0558   -4.5644   -4.5761 C.ar      1 <0>        -0.0085
     27 N8         -2.2330   -3.6670   -4.5682 N.pl3     1 <0>         0.0334
     28 O3         -3.2188   -3.9576   -5.2048 O.2       1 <0>        -0.1716
     29 O4         -2.2086   -2.6436   -3.9251 O.3       1 <0>        -0.1157
     30 O5         -0.1097   -7.8510   -5.8087 O.3       1 <0>        -0.2901
     31 C18        -1.3553   -8.1881   -6.4224 C.3       1 <0>         0.0171
     32 O6          2.2333   -7.0795   -4.5886 O.3       1 <0>        -0.2888
     33 C19         3.4166   -6.6139   -3.9366 C.3       1 <0>         0.0127
     34 H1          1.3448    2.5976   -1.5353 H         1 <0>         0.0761
     35 H2         -0.3686    2.3254   -1.9334 H         1 <0>         0.0795
     36 H3          0.1176    2.6174   -0.2462 H         1 <0>         0.0723
     37 H4          0.0783   -0.1501   -2.9745 H         1 <0>         0.1805
     38 H5          2.6142   -5.8978    3.8708 H         1 <0>         0.1856
     39 H6          3.5847   -1.0505    4.9897 H         1 <0>         0.0618
     40 H7          1.8600   -0.7050    4.7166 H         1 <0>         0.0844
     41 H8          2.3631   -1.6607    6.1315 H         1 <0>         0.0792
     42 H9          0.8086   -3.5674   -1.5128 H         1 <0>         0.4364
     43 H10         2.1587   -4.7116   -3.4847 H         1 <0>         0.1667
     44 H11        -2.0476   -6.0998   -5.6761 H         1 <0>         0.1703
     45 H12        -1.2833   -9.1793   -6.8701 H         1 <0>         0.1094
     46 H13        -2.1436   -8.1858   -5.6697 H         1 <0>         0.0625
     47 H14        -1.5892   -7.4563   -7.1957 H         1 <0>         0.0621
     48 H15         4.1967   -7.3712   -4.0152 H         1 <0>         0.1113
     49 H16         3.7550   -5.6932   -4.4119 H         1 <0>         0.0621
     50 H17         3.2009   -6.4222   -2.8855 H         1 <0>         0.0739
@<TRIPOS>BOND
     1    1    2 1
     2    1   34 1
     3    1   35 1
     4    1   36 1
     5    2    6 2
     6    2    3 1
     7    3    4 2
     8    3   37 1
     9    4    5 1
    10    4   18 1
    11    5    6 1
    12    5    7 1
    13    7   16 ar
    14    7    8 ar
    15    8    9 ar
    16    9   10 1
    17    9   11 ar
    18   11   15 ar
    19   11   12 1
    20   12   13 2
    21   12   38 1
    22   13   14 1
    23   14   15 1
    24   14   17 1
    25   15   16 ar
    26   17   39 1
    27   17   40 1
    28   17   41 1
    29   18   19 am
    30   18   42 1
    31   19   20 2
    32   19   21 1
    33   21   26 ar
    34   21   22 ar
    35   22   23 ar
    36   22   43 1
    37   23   24 ar
    38   23   32 1
    39   24   25 ar
    40   24   30 1
    41   25   26 ar
    42   25   44 1
    43   26   27 1
    44   27   28 2
    45   27   29 1
    46   30   31 1
    47   31   45 1
    48   31   46 1
    49   31   47 1
    50   32   33 1
    51   33   48 1
    52   33   49 1
    53   33   50 1
@<TRIPOS>MOLECULE
ZINC33912944
   51    54     0     0     0
SMALL
USER_CHARGES

@<TRIPOS>ATOM
      1 C1          2.4632   -0.2197    1.0050 C.3       1 <0>        -0.1390
      2 C2          1.1892   -0.8281    0.4779 C.ar      1 <0>        -0.0563
      3 C3          1.1728   -1.4264   -0.7684 C.ar      1 <0>        -0.1172
      4 C4          0.0044   -1.9844   -1.2519 C.ar      1 <0>        -0.0901
      5 C5         -1.1479   -1.9447   -0.4889 C.ar      1 <0>        -0.1188
      6 C6         -1.1314   -1.3475    0.7574 C.ar      1 <0>        -0.0766
      7 C7          0.0385   -0.7931    1.2428 C.ar      1 <0>        -0.1300
      8 C8          0.0579   -0.1465    2.6039 C.3       1 <0>         0.1064
      9 H1          0.5305    0.8345    2.5561 H         1 <0>         0.1472
     10 C9         -1.3547   -0.0374    3.1690 C.3       1 <0>        -0.1557
     11 H2         -1.9428   -0.9399    3.0019 H         1 <0>         0.1707
     12 C10        -0.9468    0.1840    4.6748 C.3       1 <0>        -0.1357
     13 H3         -0.3174    1.0732    4.6386 H         1 <0>         0.1061
     14 C11        -2.1649    0.7120    5.2405 C.2       1 <0>         0.5803
     15 O1         -2.5923    0.5420    6.3621 O.2       1 <0>        -0.3930
     16 N1         -2.7344    1.4483    4.2315 N.am      1 <0>        -0.5464
     17 C12        -2.1600    1.2121    2.9994 C.2       1 <0>         0.5620
     18 O2         -2.2731    1.8749    1.9908 O.2       1 <0>        -0.4261
     19 C13        -3.7990    2.3395    4.4266 C.ar      1 <0>         0.1411
     20 C14        -4.3315    2.5197    5.6962 C.ar      1 <0>        -0.0908
     21 C15        -5.3801    3.3982    5.8853 C.ar      1 <0>        -0.0880
     22 C16        -5.8999    4.0980    4.8117 C.ar      1 <0>        -0.0681
     23 C17        -5.3721    3.9203    3.5463 C.ar      1 <0>        -0.0273
     24 C18        -4.3190    3.0476    3.3519 C.ar      1 <0>        -0.0887
     25 N2         -5.9315    4.6709    2.3997 N.pl3     1 <0>         0.0345
     26 O3         -6.8496    5.4388    2.5700 O.2       1 <0>        -0.1548
     27 O4         -5.4704    4.5159    1.2929 O.3       1 <0>        -0.1519
     28 C19         0.0432   -0.8722    4.9200 C.3       1 <0>         0.0556
     29 N3          0.7584   -1.0243    3.5975 N.4       1 <0>        -0.4844
     30 C20         1.0361   -0.4330    5.9980 C.3       1 <0>        -0.1921
     31 C21         2.1119   -1.4779    6.1458 C.2       1 <0>         0.4867
     32 O5          2.0868   -2.4809    5.4532 O.co2     1 <0>        -0.6691
     33 O6          3.0074   -1.3202    6.9581 O.co2     1 <0>        -0.6851
     34 C22        -0.6426   -2.1514    5.3253 C.2       1 <0>         0.5227
     35 O7         -0.5013   -3.1584    4.6527 O.co2     1 <0>        -0.6492
     36 O8         -1.3387   -2.1793    6.3259 O.co2     1 <0>        -0.6399
     37 H4          2.9779   -0.9443    1.6360 H         1 <0>         0.0835
     38 H5          3.1066    0.0565    0.1697 H         1 <0>         0.0826
     39 H6          2.2265    0.6686    1.5906 H         1 <0>         0.0681
     40 H7          2.0730   -1.4574   -1.3644 H         1 <0>         0.1310
     41 H8         -0.0085   -2.4511   -2.2257 H         1 <0>         0.1295
     42 H9         -2.0611   -2.3801   -0.8670 H         1 <0>         0.1314
     43 H10        -2.0316   -1.3162    1.3532 H         1 <0>         0.1279
     44 H11        -3.9262    1.9732    6.5349 H         1 <0>         0.1722
     45 H12        -5.7950    3.5385    6.8725 H         1 <0>         0.1590
     46 H13        -6.7200    4.7845    4.9620 H         1 <0>         0.1582
     47 H14        -3.9039    2.9128    2.3641 H         1 <0>         0.1776
     48 H15         0.7078   -1.9869    3.2994 H         1 <0>         0.4426
     49 H16         1.4885    0.5161    5.7103 H         1 <0>         0.0665
     50 H17         0.5130   -0.3133    6.9468 H         1 <0>         0.1098
     51 H18         1.7230   -0.7414    3.6840 H         1 <0>         0.4213
@<TRIPOS>BOND
     1    1    2 1
     2    1   37 1
     3    1   38 1
     4    1   39 1
     5    2    7 ar
     6    2    3 ar
     7    3    4 ar
     8    3   40 1
     9    4    5 ar
    10    4   41 1
    11    5    6 ar
    12    5   42 1
    13    6    7 ar
    14    6   43 1
    15    7    8 1
    16    8    9 1
    17    8   29 1
    18    8   10 1
    19   10   11 1
    20   10   17 1
    21   10   12 1
    22   12   13 1
    23   12   14 1
    24   12   28 1
    25   14   15 2
    26   14   16 am
    27   16   17 am
    28   16   19 1
    29   17   18 2
    30   19   24 ar
    31   19   20 ar
    32   20   21 ar
    33   20   44 1
    34   21   22 ar
    35   21   45 1
    36   22   23 ar
    37   22   46 1
    38   23   24 ar
    39   23   25 1
    40   24   47 1
    41   25   26 2
    42   25   27 1
    43   28   29 1
    44   28   30 1
    45   28   34 1
    46   29   48 1
    47   29   51 1
    48   30   31 1
    49   30   49 1
    50   30   50 1
    51   31   32 2
    52   31   33 1
    53   34   35 2
    54   34   36 1
