@<TRIPOS>MOLECULE
1SYN-F89
 59 63 0 0 0
SMALL
SF_CHARGES


@<TRIPOS>ATOM
1    C        14.7360   17.9660   33.1400  C.2        1 SUBUNIT      0.6948
2    O        15.1760   17.7760   34.2730  O.2        1 SUBUNIT     -0.5339
3    N        13.8690   18.9970   33.0040  N.am       1 SUBUNIT     -0.5449
4    C        13.1190   19.1680   31.9000  C.2        1 SUBUNIT      0.4218
5    C        12.1070   20.2660   31.8200  C.3        1 SUBUNIT     -0.0976
6    N        13.2810   18.3350   30.8590  N.2        1 SUBUNIT     -0.5072
7    C        14.1510   17.3180   30.8890  C.2        1 SUBUNIT      0.1165
8    C        14.1870   16.4410   29.7980  C.2        1 SUBUNIT     -0.1123
9    C        15.3250   15.6690   29.5950  C.2        1 SUBUNIT     -0.1069
10   C        16.0850   15.3290   30.7180  C.2        1 SUBUNIT     -0.0137
11   C        16.9290   14.2140   30.6380  C.2        1 SUBUNIT     -0.1092
12   C        17.7670   13.9050   31.7110  C.2        1 SUBUNIT     -0.1070
13   C        17.7930   14.7380   32.8470  C.2        1 SUBUNIT     -0.0477
14   C        16.9190   15.8370   32.9370  C.2        1 SUBUNIT     -0.1110
15   C        16.0000   16.1130   31.9080  C.2        1 SUBUNIT     -0.0177
16   C        14.9940   17.1220   32.0090  C.2        1 SUBUNIT     -0.0573
17   C        18.7270   14.4680   33.9600  C.3        1 SUBUNIT      0.1790
18   N        18.9910   13.0500   34.1820  N.pl3      1 SUBUNIT     -0.5559
19   C        18.0780   12.1900   34.8990  C.2        1 SUBUNIT      0.1138
20   C        16.9390   12.7190   35.5410  C.2        1 SUBUNIT     -0.1212
21   C        16.1060   11.8480   36.2470  C.2        1 SUBUNIT     -0.0562
22   C        16.3710   10.4980   36.3330  C.2        1 SUBUNIT     -0.0483
23   C        17.4800    9.9450   35.6640  C.2        1 SUBUNIT     -0.1138
24   C        18.3400   10.8050   34.9520  C.2        1 SUBUNIT     -0.1217
25   C        14.8870   12.1420   36.9880  C.3        1 SUBUNIT      0.1703
26   C        15.3900    9.8680   37.1950  C.2        1 SUBUNIT      0.6527
27   O        15.4310    8.7150   37.6460  O.2        1 SUBUNIT     -0.5565
28   N        14.5070   10.8360   37.5300  N.am       1 SUBUNIT     -0.4889
29   C        13.0330   10.8010   37.6030  C.3        1 SUBUNIT      0.1586
30   C        12.5530   11.5850   38.8450  C.2        1 SUBUNIT      0.7491
31   O        11.9920   12.6720   38.6720  O.co2      1 SUBUNIT     -0.8860
32   O        12.7940   11.1640   39.9860  O.co2      1 SUBUNIT     -0.8860
33   C        12.5280    9.3410   37.6720  C.3        1 SUBUNIT     -0.0846
34   C        11.4820    8.9490   36.6280  C.3        1 SUBUNIT     -0.0854
35   C        10.6990    7.6760   36.9730  C.2        1 SUBUNIT      0.7633
36   O        11.1070    6.5910   36.5380  O.co2      1 SUBUNIT     -0.8851
37   O         9.6460    7.7460   37.6120  O.co2      1 SUBUNIT     -0.8851
38   H        13.8348   19.7042   33.7215  H          1 SUBUNIT      0.3223
39   H        11.3512   20.1611   32.6054  H          1 SUBUNIT      0.0508
40   H        11.5920   20.2554   30.8537  H          1 SUBUNIT      0.0508
41   H        12.5811   21.2460   31.9379  H          1 SUBUNIT      0.0508
42   H        13.3501   16.3633   29.1262  H          1 SUBUNIT      0.1116
43   H        15.6082   15.3463   28.6084  H          1 SUBUNIT      0.1126
44   H        16.9327   13.5983   29.7556  H          1 SUBUNIT      0.1135
45   H        18.3912   13.0297   31.6659  H          1 SUBUNIT      0.1145
46   H        16.9539   16.4742   33.8034  H          1 SUBUNIT      0.1155
47   H        19.6794   14.9623   33.7419  H          1 SUBUNIT      0.0383
48   H        18.3014   14.8839   34.8792  H          1 SUBUNIT      0.0383
49   H        19.8434   12.6497   33.8225  H          1 SUBUNIT      0.3324
50   H        16.7125   13.7697   35.4909  H          1 SUBUNIT      0.1174
51   H        17.6669    8.8858   35.6961  H          1 SUBUNIT      0.1173
52   H        19.2005   10.4027   34.4465  H          1 SUBUNIT      0.1169
53   H        15.0798   12.8611   37.7909  H          1 SUBUNIT      0.0377
54   H        14.1096   12.5348   36.3244  H          1 SUBUNIT      0.0377
55   H        12.6524   11.2728   36.6911  H          1 SUBUNIT      0.0354
56   H        13.3901    8.6779   37.5449  H          1 SUBUNIT      0.0544
57   H        12.0869    9.1814   38.6615  H          1 SUBUNIT      0.0544
58   H        10.7701    9.7751   36.5289  H          1 SUBUNIT      0.0494
59   H        11.9935    8.7906   35.6728  H          1 SUBUNIT      0.0494
@<TRIPOS>BOND
     1    1    2 2
     2    1    3 1
     3    1   16 1
     4    3    4 1
     5    4    5 1
     6    4    6 2
     7    6    7 1
     8    7    8 1
     9    7   16 2
    10    8    9 2
    11    9   10 1
    12   10   11 1
    13   10   15 2
    14   11   12 2
    15   12   13 1
    16   13   14 2
    17   13   17 1
    18   14   15 1
    19   15   16 1
    20   17   18 1
    21   18   19 1
    22   19   20 2
    23   19   24 1
    24   20   21 1
    25   21   22 2
    26   21   25 1
    27   22   23 1
    28   22   26 1
    29   23   24 2
    30   25   28 1
    31   26   27 2
    32   26   28 1
    33   28   29 1
    34   29   30 1
    35   29   33 1
    36   30   31 2
    37   30   32 1
    38   33   34 1
    39   34   35 1
    40   35   36 2
    41   35   37 1
    42    3   38 1
    43    5   39 1
    44    5   40 1
    45    5   41 1
    46    8   42 1
    47    9   43 1
    48   11   44 1
    49   12   45 1
    50   14   46 1
    51   17   47 1
    52   17   48 1
    53   18   49 1
    54   20   50 1
    55   23   51 1
    56   24   52 1
    57   25   53 1
    58   25   54 1
    59   29   55 1
    60   33   56 1
    61   33   57 1
    62   34   58 1
    63   34   59 1
