@<TRIPOS>MOLECULE
CHEMBL366356
   32    33     0     0     0
SMALL
USER_CHARGES

@<TRIPOS>ATOM
      1 C1         -0.0247    1.3907    0.1913 C.ar      1 <0>        -0.0731
      2 C2          1.1767    2.0980    0.0924 C.ar      1 <0>        -0.0901
      3 C3          2.3860    1.4052   -0.0117 C.ar      1 <0>        -0.0787
      4 C4          2.3909    0.0231   -0.0167 C.ar      1 <0>         0.0847
      5 C5          1.1925   -0.6790    0.0814 C.ar      1 <0>         0.0891
      6 C6         -0.0138    0.0086    0.1858 C.ar      1 <0>         0.0872
      7 O1         -1.1825   -0.6803    0.2820 O.3       1 <0>        -0.4852
      8 O2          1.2002   -2.0378    0.0758 O.3       1 <0>        -0.4786
      9 O3          3.5674   -0.6517   -0.1181 O.3       1 <0>        -0.4793
     10 C7          1.1682    3.5727    0.0976 C.2       1 <0>         0.5066
     11 O4          0.1161    4.1740    0.1878 O.2       1 <0>        -0.4757
     12 O5          2.3272    4.2534    0.0022 O.3       1 <0>        -0.2821
     13 C8          2.2655    5.6084   -0.0951 C.ar      1 <0>         0.0502
     14 C9          2.2763    6.2125   -1.3380 C.ar      1 <0>        -0.0741
     15 C10         2.2129    7.6059   -1.4371 C.ar      1 <0>        -0.1101
     16 C11         2.1388    8.3842   -0.2768 C.ar      1 <0>        -0.0853
     17 C12         2.1284    7.7747    0.9625 C.ar      1 <0>         0.0731
     18 C13         2.1859    6.3858    1.0580 C.ar      1 <0>         0.0764
     19 O6          2.1695    5.7891    2.2780 O.3       1 <0>        -0.4866
     20 O7          2.0568    8.5307    2.0908 O.3       1 <0>        -0.4902
     21 C14         2.2247    8.2527   -2.7598 C.2       1 <0>         0.5233
     22 O8          2.2900    7.5710   -3.7736 O.co2     1 <0>        -0.6786
     23 O9          2.1692    9.4719   -2.8451 O.co2     1 <0>        -0.6784
     24 H1         -0.9602    1.9235    0.2764 H         1 <0>         0.1539
     25 H2          3.3158    1.9493   -0.0886 H         1 <0>         0.1557
     26 H3         -1.5946   -0.8767   -0.5705 H         1 <0>         0.3976
     27 H4          1.2764   -2.4344    0.9545 H         1 <0>         0.3936
     28 H5          3.9817   -0.8498    0.7329 H         1 <0>         0.3909
     29 H6          2.3340    5.6091   -2.2319 H         1 <0>         0.1436
     30 H7          2.0901    9.4606   -0.3502 H         1 <0>         0.1458
     31 H8          3.0465    5.6584    2.6637 H         1 <0>         0.3866
     32 H9          1.1541    8.7076    2.3891 H         1 <0>         0.3878
@<TRIPOS>BOND
     1    1    6 ar
     2    1    2 ar
     3    1   24 1
     4    2    3 ar
     5    2   10 1
     6    3    4 ar
     7    3   25 1
     8    4    5 ar
     9    4    9 1
    10    5    6 ar
    11    5    8 1
    12    6    7 1
    13    7   26 1
    14    8   27 1
    15    9   28 1
    16   10   11 2
    17   10   12 1
    18   12   13 1
    19   13   18 ar
    20   13   14 ar
    21   14   15 ar
    22   14   29 1
    23   15   16 ar
    24   15   21 1
    25   16   17 ar
    26   16   30 1
    27   17   18 ar
    28   17   20 1
    29   18   19 1
    30   19   31 1
    31   20   32 1
    32   21   22 2
    33   21   23 1
@<TRIPOS>MOLECULE
CHEMBL357646
   44    45     0     0     0
SMALL
USER_CHARGES

@<TRIPOS>ATOM
      1 C1         -0.0167    1.3779    0.0096 C.ar      1 <0>        -0.0781
      2 C2          1.1848    2.0918    0.0020 C.ar      1 <0>        -0.0704
      3 C3          2.4023    1.4056   -0.0133 C.ar      1 <0>        -0.0693
      4 C4          2.4151    0.0236   -0.0209 C.ar      1 <0>         0.0823
      5 C5          1.2165   -0.6851   -0.0137 C.ar      1 <0>         0.0735
      6 C6          0.0021   -0.0041    0.0020 C.ar      1 <0>         0.0776
      7 O1         -1.1667   -0.6994    0.0099 O.3       1 <0>        -0.4877
      8 O2          1.2320   -2.0438   -0.0220 O.3       1 <0>        -0.4817
      9 O3          3.5995   -0.6448   -0.0358 O.3       1 <0>        -0.4805
     10 C7          1.1680    3.5664    0.0096 C.2       1 <0>         0.5040
     11 O4          0.1089    4.1619    0.0225 O.2       1 <0>        -0.5133
     12 O5          2.3271    4.2535    0.0022 O.3       1 <0>        -0.2992
     13 C8          2.2361    5.6796    0.0102 C.3       1 <0>         0.0439
     14 C9          3.4435    6.2718   -0.7194 C.3       1 <0>         0.0440
     15 C10         3.5322    5.6832   -2.1038 C.2       1 <0>         0.5000
     16 O6          2.6539    5.9076   -2.9191 O.co2     1 <0>        -0.6909
     17 O7          4.4823    4.9826   -2.4086 O.co2     1 <0>        -0.6811
     18 O8          4.6359    5.9651    0.0060 O.3       1 <0>        -0.2991
     19 C11         5.6500    6.8480   -0.0825 C.2       1 <0>         0.5041
     20 O9          5.5252    7.8509   -0.7570 O.2       1 <0>        -0.5132
     21 C12         6.9112    6.5971    0.6395 C.ar      1 <0>        -0.0697
     22 C13         7.0582    5.4411    1.4111 C.ar      1 <0>        -0.0699
     23 C14         8.2413    5.2085    2.0866 C.ar      1 <0>         0.0830
     24 C15         9.2863    6.1245    1.9990 C.ar      1 <0>         0.0735
     25 C16         9.1425    7.2773    1.2313 C.ar      1 <0>         0.0771
     26 C17         7.9639    7.5120    0.5486 C.ar      1 <0>        -0.0786
     27 O10        10.1649    8.1704    1.1485 O.3       1 <0>        -0.4818
     28 O11        10.4484    5.8933    2.6642 O.3       1 <0>        -0.4766
     29 O12         8.3847    4.0840    2.8381 O.3       1 <0>        -0.4797
     30 C18         2.2174    6.1737    1.4338 C.2       1 <0>         0.4993
     31 O13         2.3681    5.3880    2.3538 O.co2     1 <0>        -0.6804
     32 O14         2.0515    7.3592    1.6655 O.co2     1 <0>        -0.6907
     33 H1         -0.9588    1.9056    0.0259 H         1 <0>         0.1509
     34 H2          3.3322    1.9548   -0.0196 H         1 <0>         0.1602
     35 H3         -1.5135   -0.8958   -0.8712 H         1 <0>         0.3897
     36 H4          1.2450   -2.4424    0.8589 H         1 <0>         0.3855
     37 H5          3.9505   -0.8428    0.8433 H         1 <0>         0.3859
     38 H6          1.3200    5.9880   -0.4935 H         1 <0>         0.0987
     39 H7          3.3300    7.3535   -0.7911 H         1 <0>         0.0987
     40 H8          6.2478    4.7304    1.4798 H         1 <0>         0.1605
     41 H9          7.8547    8.4037   -0.0508 H         1 <0>         0.1510
     42 H10        10.7784    7.9996    0.4208 H         1 <0>         0.3833
     43 H11        11.1021    5.3970    2.1530 H         1 <0>         0.3802
     44 H12         8.7435    3.3291    2.3518 H         1 <0>         0.3853
@<TRIPOS>BOND
     1    1    6 ar
     2    1    2 ar
     3    1   33 1
     4    2    3 ar
     5    2   10 1
     6    3    4 ar
     7    3   34 1
     8    4    5 ar
     9    4    9 1
    10    5    6 ar
    11    5    8 1
    12    6    7 1
    13    7   35 1
    14    8   36 1
    15    9   37 1
    16   10   11 2
    17   10   12 1
    18   12   13 1
    19   13   14 1
    20   13   30 1
    21   13   38 1
    22   14   15 1
    23   14   18 1
    24   14   39 1
    25   15   16 2
    26   15   17 1
    27   18   19 1
    28   19   20 2
    29   19   21 1
    30   21   26 ar
    31   21   22 ar
    32   22   23 ar
    33   22   40 1
    34   23   24 ar
    35   23   29 1
    36   24   25 ar
    37   24   28 1
    38   25   26 ar
    39   25   27 1
    40   26   41 1
    41   27   42 1
    42   28   43 1
    43   29   44 1
    44   30   31 2
    45   30   32 1
@<TRIPOS>MOLECULE
CHEMBL357646__1
   44    45     0     0     0
SMALL
USER_CHARGES

@<TRIPOS>ATOM
      1 C1         -0.0167    1.3779    0.0096 C.ar      1 <0>        -0.0784
      2 C2          1.1848    2.0918    0.0020 C.ar      1 <0>        -0.0685
      3 C3          2.4023    1.4056   -0.0133 C.ar      1 <0>        -0.0649
      4 C4          2.4151    0.0236   -0.0209 C.ar      1 <0>         0.0814
      5 C5          1.2165   -0.6851   -0.0137 C.ar      1 <0>         0.0735
      6 C6          0.0021   -0.0041    0.0020 C.ar      1 <0>         0.0764
      7 O1         -1.1667   -0.6994    0.0099 O.3       1 <0>        -0.4880
      8 O2          1.2320   -2.0438   -0.0220 O.3       1 <0>        -0.4817
      9 O3          3.5995   -0.6448   -0.0358 O.3       1 <0>        -0.4803
     10 C7          1.1680    3.5664    0.0096 C.2       1 <0>         0.5098
     11 O4          0.1089    4.1619    0.0225 O.2       1 <0>        -0.5171
     12 O5          2.3271    4.2535    0.0022 O.3       1 <0>        -0.2875
     13 C8          2.2361    5.6796    0.0102 C.3       1 <0>         0.0436
     14 C9          3.4435    6.2718   -0.7194 C.3       1 <0>         0.0436
     15 C10         3.4622    5.7777   -2.1429 C.2       1 <0>         0.4933
     16 O6          3.3115    6.5634   -3.0630 O.co2     1 <0>        -0.6879
     17 O7          3.6281    4.5922   -2.3746 O.co2     1 <0>        -0.6757
     18 O8          3.3524    7.6979   -0.7113 O.3       1 <0>        -0.2875
     19 C11         4.5116    8.3850   -0.7187 C.2       1 <0>         0.5097
     20 O9          5.5707    7.7896   -0.7316 O.2       1 <0>        -0.5169
     21 C12         4.4947    9.8597   -0.7111 C.ar      1 <0>        -0.0676
     22 C13         3.2773   10.5458   -0.6905 C.ar      1 <0>        -0.0655
     23 C14         3.2645   11.9278   -0.6835 C.ar      1 <0>         0.0822
     24 C15         4.4630   12.6366   -0.6969 C.ar      1 <0>         0.0734
     25 C16         5.6774   11.9555   -0.7179 C.ar      1 <0>         0.0759
     26 C17         5.6962   10.5736   -0.7187 C.ar      1 <0>        -0.0791
     27 O10         6.8461   12.6509   -0.7319 O.3       1 <0>        -0.4820
     28 O11         4.4475   13.9953   -0.6900 O.3       1 <0>        -0.4772
     29 O12         2.0802   12.5961   -0.6639 O.3       1 <0>        -0.4815
     30 C18         2.2174    6.1737    1.4338 C.2       1 <0>         0.4953
     31 O13         2.3681    5.3880    2.3538 O.co2     1 <0>        -0.6893
     32 O14         2.0515    7.3592    1.6655 O.co2     1 <0>        -0.6774
     33 H1         -0.9588    1.9056    0.0259 H         1 <0>         0.1504
     34 H2          3.3322    1.9548   -0.0196 H         1 <0>         0.1612
     35 H3         -1.5135   -0.8958   -0.8712 H         1 <0>         0.3894
     36 H4          1.2450   -2.4424    0.8589 H         1 <0>         0.3851
     37 H5          3.9505   -0.8428    0.8433 H         1 <0>         0.3854
     38 H6          1.3200    5.9880   -0.4935 H         1 <0>         0.0813
     39 H7          4.3596    5.9634   -0.2156 H         1 <0>         0.0810
     40 H8          2.3474    9.9966   -0.6804 H         1 <0>         0.1613
     41 H9          6.6384   10.0458   -0.7298 H         1 <0>         0.1505
     42 H10         7.1971   12.8479    0.1473 H         1 <0>         0.3830
     43 H11         4.4555   14.3842    0.1954 H         1 <0>         0.3803
     44 H12         1.7498   12.7850    0.2251 H         1 <0>         0.3869
@<TRIPOS>BOND
     1    1    6 ar
     2    1    2 ar
     3    1   33 1
     4    2    3 ar
     5    2   10 1
     6    3    4 ar
     7    3   34 1
     8    4    5 ar
     9    4    9 1
    10    5    6 ar
    11    5    8 1
    12    6    7 1
    13    7   35 1
    14    8   36 1
    15    9   37 1
    16   10   11 2
    17   10   12 1
    18   12   13 1
    19   13   14 1
    20   13   30 1
    21   13   38 1
    22   14   15 1
    23   14   18 1
    24   14   39 1
    25   15   16 2
    26   15   17 1
    27   18   19 1
    28   19   20 2
    29   19   21 1
    30   21   26 ar
    31   21   22 ar
    32   22   23 ar
    33   22   40 1
    34   23   24 ar
    35   23   29 1
    36   24   25 ar
    37   24   28 1
    38   25   26 ar
    39   25   27 1
    40   26   41 1
    41   27   42 1
    42   28   43 1
    43   29   44 1
    44   30   31 2
    45   30   32 1
@<TRIPOS>MOLECULE
CHEMBL357646__2
   44    45     0     0     0
SMALL
USER_CHARGES

@<TRIPOS>ATOM
      1 C1         -0.0167    1.3779    0.0096 C.ar      1 <0>        -0.0784
      2 C2          1.1848    2.0918    0.0020 C.ar      1 <0>        -0.0711
      3 C3          2.4023    1.4056   -0.0133 C.ar      1 <0>        -0.0693
      4 C4          2.4151    0.0236   -0.0209 C.ar      1 <0>         0.0831
      5 C5          1.2165   -0.6851   -0.0137 C.ar      1 <0>         0.0735
      6 C6          0.0021   -0.0041    0.0020 C.ar      1 <0>         0.0772
      7 O1         -1.1667   -0.6994    0.0099 O.3       1 <0>        -0.4876
      8 O2          1.2320   -2.0438   -0.0220 O.3       1 <0>        -0.4821
      9 O3          3.5995   -0.6448   -0.0358 O.3       1 <0>        -0.4815
     10 C7          1.1680    3.5664    0.0096 C.2       1 <0>         0.5045
     11 O4          0.1089    4.1619    0.0225 O.2       1 <0>        -0.5138
     12 O5          2.3271    4.2535    0.0022 O.3       1 <0>        -0.2990
     13 C8          2.2361    5.6796    0.0102 C.3       1 <0>         0.0440
     14 C9          3.4570    6.2646    0.7231 C.3       1 <0>         0.0440
     15 C10         3.5715    5.6620    2.0996 C.2       1 <0>         0.4993
     16 O6          4.5271    4.9584    2.3795 O.co2     1 <0>        -0.6801
     17 O7          2.7086    5.8781    2.9334 O.co2     1 <0>        -0.6914
     18 O8          4.6356    5.9653   -0.0275 O.3       1 <0>        -0.2989
     19 C11         5.6512    6.8473    0.0508 C.2       1 <0>         0.5043
     20 O9          5.5392    7.8434    0.7377 O.2       1 <0>        -0.5136
     21 C12         6.8987    6.6038   -0.6970 C.ar      1 <0>        -0.0701
     22 C13         7.0268    5.4614   -1.4920 C.ar      1 <0>        -0.0700
     23 C14         8.1971    5.2357   -2.1917 C.ar      1 <0>         0.0837
     24 C15         9.2480    6.1451   -2.1053 C.ar      1 <0>         0.0735
     25 C16         9.1233    7.2839   -1.3137 C.ar      1 <0>         0.0768
     26 C17         7.9530    7.5178   -0.6167 C.ar      1 <0>        -0.0788
     27 O10        10.1520    8.1696   -1.2308 O.3       1 <0>        -0.4820
     28 O11        10.3974    5.9207   -2.7943 O.3       1 <0>        -0.4770
     29 O12         8.3225    4.1240   -2.9651 O.3       1 <0>        -0.4808
     30 C18         2.1908    6.1880   -1.4077 C.2       1 <0>         0.4999
     31 O13         2.0207    7.3758   -1.6242 O.co2     1 <0>        -0.6917
     32 O14         2.3242    5.4117   -2.3383 O.co2     1 <0>        -0.6807
     33 H1         -0.9588    1.9056    0.0259 H         1 <0>         0.1507
     34 H2          3.3322    1.9548   -0.0196 H         1 <0>         0.1604
     35 H3         -1.5135   -0.8958   -0.8712 H         1 <0>         0.3893
     36 H4          1.2450   -2.4424    0.8589 H         1 <0>         0.3860
     37 H5          3.9505   -0.8428    0.8433 H         1 <0>         0.3879
     38 H6          1.3296    5.9828    0.5341 H         1 <0>         0.0987
     39 H7          3.3449    7.3455    0.8078 H         1 <0>         0.0986
     40 H8          6.2122    4.7555   -1.5591 H         1 <0>         0.1606
     41 H9          7.8549    8.4038   -0.0070 H         1 <0>         0.1508
     42 H10        10.1228    8.8699   -1.8971 H         1 <0>         0.3834
     43 H11        10.4030    6.2994   -3.6841 H         1 <0>         0.3806
     44 H12         8.0315    4.2459   -3.8792 H         1 <0>         0.3872
@<TRIPOS>BOND
     1    1    6 ar
     2    1    2 ar
     3    1   33 1
     4    2    3 ar
     5    2   10 1
     6    3    4 ar
     7    3   34 1
     8    4    5 ar
     9    4    9 1
    10    5    6 ar
    11    5    8 1
    12    6    7 1
    13    7   35 1
    14    8   36 1
    15    9   37 1
    16   10   11 2
    17   10   12 1
    18   12   13 1
    19   13   14 1
    20   13   30 1
    21   13   38 1
    22   14   15 1
    23   14   18 1
    24   14   39 1
    25   15   16 2
    26   15   17 1
    27   18   19 1
    28   19   20 2
    29   19   21 1
    30   21   26 ar
    31   21   22 ar
    32   22   23 ar
    33   22   40 1
    34   23   24 ar
    35   23   29 1
    36   24   25 ar
    37   24   28 1
    38   25   26 ar
    39   25   27 1
    40   26   41 1
    41   27   42 1
    42   28   43 1
    43   29   44 1
    44   30   31 2
    45   30   32 1
@<TRIPOS>MOLECULE
CHEMBL32865
   57    61     0     0     0
SMALL
USER_CHARGES

@<TRIPOS>ATOM
      1 C1          0.7045    0.4957   -1.3707 C.ar      1 <0>        -0.1245
      2 C2          1.7585    1.3593   -1.1380 C.ar      1 <0>        -0.1184
      3 C3          2.9909    0.8598   -0.7603 C.ar      1 <0>        -0.1156
      4 C4          3.1690   -0.5033   -0.6147 C.ar      1 <0>        -0.0747
      5 C5          2.1148   -1.3668   -0.8464 C.ar      1 <0>        -0.1127
      6 C6          0.8828   -0.8674   -1.2255 C.ar      1 <0>        -0.1179
      7 C7          4.5128   -1.0479   -0.2038 C.3       1 <0>        -0.0383
      8 C8          4.5821   -1.1330    1.2992 C.ar      1 <0>        -0.1046
      9 C9          5.0475   -0.0544    2.0311 C.ar      1 <0>        -0.0617
     10 C10         5.1140   -0.1237    3.4114 C.ar      1 <0>        -0.1356
     11 C11         4.7164   -1.2701    4.0676 C.ar      1 <0>        -0.0339
     12 C12         4.2458   -2.3622    3.3354 C.ar      1 <0>        -0.1599
     13 C13         4.1763   -2.2834    1.9425 C.ar      1 <0>        -0.0588
     14 C14         3.8184   -3.5937    4.0314 C.2       1 <0>         0.4469
     15 O1          3.7441   -3.6117    5.2450 O.2       1 <0>        -0.4179
     16 C15         3.4822   -4.8006    3.2544 C.ar      1 <0>         0.0109
     17 C16         3.0062   -5.9289    3.9181 C.ar      1 <0>         0.1680
     18 C17         2.6895   -7.0764    3.1539 C.ar      1 <0>         0.1180
     19 C18         2.8751   -7.0127    1.7505 C.ar      1 <0>        -0.1347
     20 C19         2.5667   -8.1414    0.9720 C.ar      1 <0>        -0.0413
     21 C20         2.0985   -9.2556    1.6117 C.ar      1 <0>        -0.1620
     22 C21         1.9400   -9.2488    2.9958 C.ar      1 <0>         0.1473
     23 N1          2.2300   -8.1921    3.7180 N.ar      1 <0>        -0.4566
     24 C22         3.3626   -5.8239    1.1757 C.ar      1 <0>         0.1451
     25 N2          3.6350   -4.7882    1.9264 N.ar      1 <0>        -0.4355
     26 O2          2.8508   -5.9275    5.2637 O.3       1 <0>        -0.4532
     27 C23         5.6226    1.0557    4.1997 C.3       1 <0>         0.2051
     28 N3          4.5014    1.9343    4.5420 N.pl3     1 <0>        -0.9836
     29 C24         3.9157    2.9950    3.7026 C.3       1 <0>         0.0726
     30 C25         2.4215    3.1853    4.0237 C.3       1 <0>        -0.1301
     31 C26         2.3416    3.2025    5.5800 C.3       1 <0>        -0.5942
     32 S1          3.6168    1.9348    5.9659 S.o2      1 <0>         2.5553
     33 O3          3.0339    0.6417    6.0509 O.2       1 <0>        -0.9455
     34 O4          4.5080    2.4084    6.9662 O.2       1 <0>        -0.9558
     35 H1         -0.2595    0.8862   -1.6614 H         1 <0>         0.1196
     36 H2          1.6193    2.4242   -1.2518 H         1 <0>         0.1203
     37 H3          3.8145    1.5344   -0.5792 H         1 <0>         0.1191
     38 H4          2.2541   -2.4318   -0.7330 H         1 <0>         0.1210
     39 H5          0.0592   -1.5421   -1.4070 H         1 <0>         0.1201
     40 H6          4.6480   -2.0417   -0.6306 H         1 <0>         0.0851
     41 H7          5.2994   -0.3864   -0.5669 H         1 <0>         0.0819
     42 H8          5.3604    0.8454    1.5224 H         1 <0>         0.1223
     43 H9          4.7692   -1.3230    5.1450 H         1 <0>         0.1324
     44 H10         3.8095   -3.1228    1.3704 H         1 <0>         0.1776
     45 H11         2.6953   -8.1290   -0.1002 H         1 <0>         0.1531
     46 H12         1.8514  -10.1405    1.0441 H         1 <0>         0.1488
     47 H13         1.5693  -10.1362    3.4871 H         1 <0>         0.1698
     48 H14         3.5080   -5.7650    0.1072 H         1 <0>         0.1784
     49 H15         1.9777   -5.6343    5.5585 H         1 <0>         0.4025
     50 H16         6.1002    0.7030    5.1138 H         1 <0>         0.0896
     51 H17         6.3471    1.6077    3.6009 H         1 <0>         0.0926
     52 H18         4.4440    3.9305    3.8861 H         1 <0>         0.0784
     53 H19         4.0251    2.7231    2.6527 H         1 <0>         0.0939
     54 H20         2.0639    4.1307    3.6157 H         1 <0>         0.1123
     55 H21         1.8395    2.3551    3.6238 H         1 <0>         0.0943
     56 H22         2.6130    4.1791    5.9809 H         1 <0>         0.1425
     57 H23         1.3574    2.8918    5.9306 H         1 <0>         0.1421
@<TRIPOS>BOND
     1    1    6 ar
     2    1    2 ar
     3    1   35 1
     4    2    3 ar
     5    2   36 1
     6    3    4 ar
     7    3   37 1
     8    4    5 ar
     9    4    7 1
    10    5    6 ar
    11    5   38 1
    12    6   39 1
    13    7    8 1
    14    7   40 1
    15    7   41 1
    16    8   13 ar
    17    8    9 ar
    18    9   10 ar
    19    9   42 1
    20   10   11 ar
    21   10   27 1
    22   11   12 ar
    23   11   43 1
    24   12   13 ar
    25   12   14 1
    26   13   44 1
    27   14   15 2
    28   14   16 1
    29   16   25 ar
    30   16   17 ar
    31   17   18 ar
    32   17   26 1
    33   18   23 ar
    34   18   19 ar
    35   19   20 ar
    36   19   24 ar
    37   20   21 ar
    38   20   45 1
    39   21   22 ar
    40   21   46 1
    41   22   23 ar
    42   22   47 1
    43   24   25 ar
    44   24   48 1
    45   26   49 1
    46   27   28 1
    47   27   50 1
    48   27   51 1
    49   28   32 1
    50   28   29 1
    51   29   30 1
    52   29   52 1
    53   29   53 1
    54   30   31 1
    55   30   54 1
    56   30   55 1
    57   31   32 1
    58   31   56 1
    59   31   57 1
    60   32   33 2
    61   32   34 2
@<TRIPOS>MOLECULE
CHEMBL193759
   34    35     0     0     0
SMALL
USER_CHARGES

@<TRIPOS>ATOM
      1 C1         -0.0167    1.3781    0.0096 C.ar      1 <0>        -0.1254
      2 C2          1.1709    2.0855    0.0021 C.ar      1 <0>        -0.1202
      3 C3          2.3773    1.4107   -0.0130 C.ar      1 <0>        -0.1153
      4 C4          2.3960    0.0285   -0.0201 C.ar      1 <0>        -0.0759
      5 C5          1.2084   -0.6789   -0.0117 C.ar      1 <0>        -0.1129
      6 C6          0.0021   -0.0041    0.0020 C.ar      1 <0>        -0.1170
      7 C7          3.7112   -0.7071   -0.0376 C.3       1 <0>        -0.0410
      8 C8          4.1644   -0.9594    1.3773 C.ar      1 <0>        -0.0935
      9 C9          4.9531   -0.0252    2.0265 C.ar      1 <0>        -0.0903
     10 C10         5.3744   -0.2477    3.3257 C.ar      1 <0>        -0.1296
     11 C11         5.0112   -1.4039    3.9838 C.ar      1 <0>        -0.0759
     12 C12         4.2147   -2.3525    3.3349 C.ar      1 <0>        -0.1549
     13 C13         3.7879   -2.1175    2.0237 C.ar      1 <0>        -0.0598
     14 C14         3.8229   -3.5893    4.0297 C.2       1 <0>         0.3830
     15 C15         4.2804   -3.8360    5.4443 C.3       1 <0>        -0.2117
     16 C16         3.7472   -5.1627    5.9204 C.2       1 <0>         0.2903
     17 O1          3.0659   -5.8382    5.1868 O.2       1 <0>        -0.4221
     18 C17         4.0611   -5.6421    7.2996 C.2       1 <0>         0.4694
     19 O2          3.6293   -6.7165    7.6852 O.co2     1 <0>        -0.6521
     20 O3          4.7495   -4.9595    8.0410 O.co2     1 <0>        -0.6689
     21 O4          3.1322   -4.4097    3.4641 O.2       1 <0>        -0.4177
     22 H1         -0.9591    1.9053    0.0259 H         1 <0>         0.1197
     23 H2          1.1563    3.1654    0.0076 H         1 <0>         0.1202
     24 H3          3.3051    1.9634   -0.0196 H         1 <0>         0.1200
     25 H4          1.2231   -1.7588   -0.0176 H         1 <0>         0.1225
     26 H5         -0.9258   -0.5567    0.0082 H         1 <0>         0.1218
     27 H6          3.5884   -1.6586   -0.5549 H         1 <0>         0.0837
     28 H7          4.4573   -0.1052   -0.5563 H         1 <0>         0.0832
     29 H8          5.2415    0.8819    1.5162 H         1 <0>         0.1225
     30 H9          5.9896    0.4859    3.8255 H         1 <0>         0.1284
     31 H10         5.3414   -1.5765    4.9975 H         1 <0>         0.1373
     32 H11         3.1688   -2.8433    1.5175 H         1 <0>         0.1307
     33 H12         5.3698   -3.8495    5.4767 H         1 <0>         0.1258
     34 H13         3.9074   -3.0415    6.0905 H         1 <0>         0.1255
@<TRIPOS>BOND
     1    1    6 ar
     2    1    2 ar
     3    1   22 1
     4    2    3 ar
     5    2   23 1
     6    3    4 ar
     7    3   24 1
     8    4    5 ar
     9    4    7 1
    10    5    6 ar
    11    5   25 1
    12    6   26 1
    13    7    8 1
    14    7   27 1
    15    7   28 1
    16    8   13 ar
    17    8    9 ar
    18    9   10 ar
    19    9   29 1
    20   10   11 ar
    21   10   30 1
    22   11   12 ar
    23   11   31 1
    24   12   13 ar
    25   12   14 1
    26   13   32 1
    27   14   15 1
    28   14   21 2
    29   15   16 1
    30   15   33 1
    31   15   34 1
    32   16   17 2
    33   16   18 1
    34   18   19 2
    35   18   20 1
@<TRIPOS>MOLECULE
CHEMBL212412
   44    48     0     0     0
SMALL
USER_CHARGES

@<TRIPOS>ATOM
      1 C1         -0.3337    0.7782   -0.6614 C.3       1 <0>         0.0243
      2 O1         -0.1125   -0.6309   -0.7483 O.3       1 <0>        -0.3237
      3 C2          0.6262   -1.0758   -1.7987 C.ar      1 <0>         0.1255
      4 C3          0.0133   -1.2910   -3.0518 C.ar      1 <0>        -0.0846
      5 C4         -1.3600   -1.0534   -3.2392 C.ar      1 <0>        -0.0559
      6 C5         -1.8920   -1.2822   -4.4768 C.ar      1 <0>        -0.1558
      7 C6         -1.0759   -1.7385   -5.5098 C.ar      1 <0>         0.1335
      8 N1          0.2036   -1.9588   -5.3302 N.ar      1 <0>        -0.4502
      9 C7          0.7850   -1.7541   -4.1443 C.ar      1 <0>         0.1048
     10 C8          2.1635   -1.9942   -3.9637 C.ar      1 <0>         0.2233
     11 C9          2.7427   -1.7732   -2.7177 C.ar      1 <0>        -0.1672
     12 C10         1.9556   -1.3080   -1.6442 C.ar      1 <0>        -0.0447
     13 C11         2.8900   -1.1759   -0.4689 C.3       1 <0>         0.1237
     14 C12         2.4234   -1.4966    0.9494 C.3       1 <0>        -0.1504
     15 C13         2.7226   -0.0499    0.5491 C.3       1 <0>        -0.1657
     16 N2          4.2151   -1.5808   -0.9412 N.am      1 <0>        -0.5754
     17 C14         4.1260   -1.9315   -2.2360 C.2       1 <0>         0.5751
     18 O2          5.0580   -2.3144   -2.9168 O.2       1 <0>        -0.5018
     19 C15         5.4364   -1.6093   -0.1325 C.3       1 <0>         0.1744
     20 C16         6.2075   -0.3316   -0.3421 C.ar      1 <0>        -0.1263
     21 C17         7.0750   -0.2160   -1.4122 C.ar      1 <0>        -0.0637
     22 C18         7.7824    0.9553   -1.6056 C.ar      1 <0>        -0.1544
     23 C19         7.6219    2.0134   -0.7271 C.ar      1 <0>         0.1065
     24 C20         6.7528    1.8965    0.3444 C.ar      1 <0>        -0.1566
     25 C21         6.0426    0.7260    0.5328 C.ar      1 <0>        -0.0764
     26 F1          8.3133    3.1588   -0.9149 F         1 <0>        -0.1377
     27 O3          2.9196   -2.4382   -4.9981 O.3       1 <0>        -0.4635
     28 H1          0.6227    1.2994   -0.7026 H         1 <0>         0.0527
     29 H2         -0.9590    1.0999   -1.4942 H         1 <0>         0.0510
     30 H3         -0.8337    1.0102    0.2790 H         1 <0>         0.1030
     31 H4         -1.9776   -0.7000   -2.4267 H         1 <0>         0.1479
     32 H5         -2.9434   -1.1100   -4.6540 H         1 <0>         0.1469
     33 H6         -1.5087   -1.9155   -6.4833 H         1 <0>         0.1686
     34 H7          1.3784   -1.7757    1.0846 H         1 <0>         0.1185
     35 H8          3.1323   -1.9923    1.6126 H         1 <0>         0.1076
     36 H9          3.6284    0.4060    0.9489 H         1 <0>         0.1090
     37 H10         1.8745    0.6226    0.4210 H         1 <0>         0.1103
     38 H11         5.1726   -1.7059    0.9206 H         1 <0>         0.0964
     39 H12         6.0511   -2.4580   -0.4325 H         1 <0>         0.1005
     40 H13         7.2003   -1.0416   -2.0972 H         1 <0>         0.1401
     41 H14         8.4603    1.0453   -2.4415 H         1 <0>         0.1378
     42 H15         6.6271    2.7210    1.0305 H         1 <0>         0.1376
     43 H16         5.3612    0.6362    1.3659 H         1 <0>         0.1329
     44 H17         3.3144   -1.7323   -5.5280 H         1 <0>         0.4022
@<TRIPOS>BOND
     1    1    2 1
     2    1   28 1
     3    1   29 1
     4    1   30 1
     5    2    3 1
     6    3   12 ar
     7    3    4 ar
     8    4    9 ar
     9    4    5 ar
    10    5    6 ar
    11    5   31 1
    12    6    7 ar
    13    6   32 1
    14    7    8 ar
    15    7   33 1
    16    8    9 ar
    17    9   10 ar
    18   10   11 ar
    19   10   27 1
    20   11   17 1
    21   11   12 ar
    22   12   13 1
    23   13   15 1
    24   13   14 1
    25   13   16 1
    26   14   15 1
    27   14   34 1
    28   14   35 1
    29   15   36 1
    30   15   37 1
    31   16   17 am
    32   16   19 1
    33   17   18 2
    34   19   20 1
    35   19   38 1
    36   19   39 1
    37   20   25 ar
    38   20   21 ar
    39   21   22 ar
    40   21   40 1
    41   22   23 ar
    42   22   41 1
    43   23   24 ar
    44   23   26 1
    45   24   25 ar
    46   24   42 1
    47   25   43 1
    48   27   44 1
@<TRIPOS>MOLECULE
CHEMBL212412__1
   43    47     0     0     0
SMALL
USER_CHARGES

@<TRIPOS>ATOM
      1 C1         -0.4241    0.7699    0.6218 C.3       1 <0>         0.0213
      2 O1         -0.5746   -0.6439    0.4786 O.3       1 <0>        -0.3187
      3 C2         -1.8421   -1.1212    0.3655 C.ar      1 <0>        -0.0431
      4 C3         -2.6153   -1.3518    1.5236 C.ar      1 <0>        -0.0326
      5 C4         -2.0972   -1.0966    2.8058 C.ar      1 <0>        -0.1008
      6 C5         -2.8972   -1.3418    3.8861 C.ar      1 <0>        -0.1562
      7 C6         -4.1879   -1.8313    3.6973 C.ar      1 <0>         0.0536
      8 N1         -4.6663   -2.0679    2.5002 N.ar      1 <0>        -0.4153
      9 C7         -3.9352   -1.8486    1.4030 C.ar      1 <0>         0.0594
     10 C8         -4.4616   -2.1065    0.1198 C.ar      1 <0>         0.3610
     11 C9         -3.6778   -1.8697   -1.0056 C.ar      1 <0>        -0.3550
     12 C10        -2.3667   -1.3709   -0.8622 C.ar      1 <0>         0.0364
     13 C11        -1.8194   -1.2299   -2.2595 C.3       1 <0>         0.1443
     14 C12        -0.3502   -1.5149   -2.5634 C.3       1 <0>        -0.1617
     15 C13        -0.8826   -0.0813   -2.6274 C.3       1 <0>        -0.1774
     16 N2         -2.8804   -1.6648   -3.1696 N.am      1 <0>        -0.5966
     17 C14        -3.9481   -2.0399   -2.4438 C.2       1 <0>         0.5878
     18 O2         -4.9937   -2.4508   -2.9093 O.2       1 <0>        -0.5320
     19 C15        -2.7898   -1.6961   -4.6314 C.3       1 <0>         0.1766
     20 C16        -3.3886   -0.4350   -5.1990 C.ar      1 <0>        -0.1129
     21 C17        -4.7516   -0.3544   -5.4157 C.ar      1 <0>        -0.0617
     22 C18        -5.3019    0.8017   -5.9357 C.ar      1 <0>        -0.1544
     23 C19        -4.4877    1.8795   -6.2397 C.ar      1 <0>         0.0953
     24 C20        -3.1227    1.7976   -6.0222 C.ar      1 <0>        -0.1593
     25 C21        -2.5753    0.6423   -5.4972 C.ar      1 <0>        -0.0798
     26 F1         -5.0245    3.0100   -6.7485 F         1 <0>        -0.1438
     27 O3         -5.7239   -2.5828   -0.0163 O.3       1 <0>        -0.6133
     28 H1          0.6341    1.0284    0.5838 H         1 <0>         0.0797
     29 H2         -0.9509    1.2752   -0.1878 H         1 <0>         0.0392
     30 H3         -0.8409    1.0846    1.5785 H         1 <0>         0.0363
     31 H4         -1.0940   -0.7175    2.9332 H         1 <0>         0.1284
     32 H5         -2.5295   -1.1568    4.8846 H         1 <0>         0.1238
     33 H6         -4.8101   -2.0210    4.5595 H         1 <0>         0.1456
     34 H7          0.2961   -1.7749   -1.7250 H         1 <0>         0.1126
     35 H8         -0.1178   -2.0082   -3.5072 H         1 <0>         0.0953
     36 H9         -1.0005    0.3683   -3.6134 H         1 <0>         0.0975
     37 H10        -0.5866    0.6016   -1.8312 H         1 <0>         0.1056
     38 H11        -1.7437   -1.7676   -4.9292 H         1 <0>         0.0846
     39 H12        -3.3353   -2.5601   -5.0109 H         1 <0>         0.0905
     40 H13        -5.3865   -1.1954   -5.1788 H         1 <0>         0.1415
     41 H14        -6.3667    0.8643   -6.1052 H         1 <0>         0.1344
     42 H15        -2.4865    2.6375   -6.2593 H         1 <0>         0.1327
     43 H16        -1.5112    0.5798   -5.3234 H         1 <0>         0.1311
@<TRIPOS>BOND
     1    1    2 1
     2    1   28 1
     3    1   29 1
     4    1   30 1
     5    2    3 1
     6    3   12 ar
     7    3    4 ar
     8    4    9 ar
     9    4    5 ar
    10    5    6 ar
    11    5   31 1
    12    6    7 ar
    13    6   32 1
    14    7    8 ar
    15    7   33 1
    16    8    9 ar
    17    9   10 ar
    18   10   11 ar
    19   10   27 1
    20   11   17 1
    21   11   12 ar
    22   12   13 1
    23   13   15 1
    24   13   14 1
    25   13   16 1
    26   14   15 1
    27   14   34 1
    28   14   35 1
    29   15   36 1
    30   15   37 1
    31   16   17 am
    32   16   19 1
    33   17   18 2
    34   19   20 1
    35   19   38 1
    36   19   39 1
    37   20   25 ar
    38   20   21 ar
    39   21   22 ar
    40   21   40 1
    41   22   23 ar
    42   22   41 1
    43   23   24 ar
    44   23   26 1
    45   24   25 ar
    46   24   42 1
    47   25   43 1
@<TRIPOS>MOLECULE
CHEMBL196391
   42    44     0     0     0
SMALL
USER_CHARGES

@<TRIPOS>ATOM
      1 C1         -0.0173    1.4248    0.0099 C.3       1 <0>         0.0292
      2 O1          0.0021   -0.0041    0.0020 O.3       1 <0>        -0.3158
      3 C2         -1.2009   -0.6378    0.0101 C.ar      1 <0>         0.1055
      4 C3         -2.3772    0.1057    0.0195 C.ar      1 <0>        -0.1845
      5 C4         -3.6030   -0.5221    0.0278 C.ar      1 <0>        -0.0847
      6 C5         -3.6735   -1.9118    0.0267 C.ar      1 <0>         0.0525
      7 C6         -2.4875   -2.6616    0.0168 C.ar      1 <0>        -0.0202
      8 C7         -1.2527   -2.0193    0.0032 C.ar      1 <0>        -0.1028
      9 C8         -2.9055   -4.0774    0.0189 C.2       1 <0>        -0.2586
     10 C9         -4.2844   -4.0713    0.0297 C.2       1 <0>         0.1366
     11 N1         -4.7309   -2.8012    0.0343 N.pl3     1 <0>        -0.4582
     12 C10        -6.1441   -2.4151    0.0462 C.3       1 <0>         0.1470
     13 C11        -6.6074   -2.1617   -1.3652 C.ar      1 <0>        -0.1293
     14 C12        -6.4993   -0.8961   -1.9109 C.ar      1 <0>        -0.0684
     15 C13        -6.9235   -0.6626   -3.2053 C.ar      1 <0>        -0.1552
     16 C14        -7.4570   -1.6968   -3.9556 C.ar      1 <0>         0.1082
     17 C15        -7.5648   -2.9639   -3.4080 C.ar      1 <0>        -0.1525
     18 C16        -7.1351   -3.1962   -2.1152 C.ar      1 <0>        -0.0671
     19 F1         -7.8724   -1.4696   -5.2209 F         1 <0>        -0.1378
     20 C17        -2.0598   -5.2143    0.0106 C.2       1 <0>         0.4086
     21 C18        -2.6572   -6.5979    0.0142 C.3       1 <0>        -0.2109
     22 C19        -1.5519   -7.6223    0.0038 C.2       1 <0>         0.2893
     23 O2         -0.3981   -7.2656   -0.0056 O.2       1 <0>        -0.4188
     24 C20        -1.8834   -9.0785    0.0051 C.2       1 <0>         0.4688
     25 O3         -0.9883   -9.9081   -0.0033 O.co2     1 <0>        -0.6541
     26 O4         -3.0494   -9.4389    0.0146 O.co2     1 <0>        -0.6723
     27 O5         -0.8539   -5.0738    0.0005 O.2       1 <0>        -0.4321
     28 H1          1.0053    1.8021    0.0021 H         1 <0>         0.0973
     29 H2         -0.5445    1.7859   -0.8732 H         1 <0>         0.0522
     30 H3         -0.5275    1.7763    0.9067 H         1 <0>         0.0525
     31 H4         -2.3284    1.1846    0.0207 H         1 <0>         0.1305
     32 H5         -4.5098    0.0644    0.0354 H         1 <0>         0.1204
     33 H6         -0.3402   -2.5969   -0.0083 H         1 <0>         0.1420
     34 H7         -4.9106   -4.9511    0.0336 H         1 <0>         0.1868
     35 H8         -6.7365   -3.2183    0.4844 H         1 <0>         0.1087
     36 H9         -6.2679   -1.5080    0.6377 H         1 <0>         0.1003
     37 H10        -6.0835   -0.0895   -1.3254 H         1 <0>         0.1318
     38 H11        -6.8392    0.3262   -3.6313 H         1 <0>         0.1372
     39 H12        -7.9810   -3.7713   -3.9922 H         1 <0>         0.1402
     40 H13        -7.2150   -4.1855   -1.6894 H         1 <0>         0.1383
     41 H14        -3.2654   -6.7287    0.9092 H         1 <0>         0.1198
     42 H15        -3.2804   -6.7268   -0.8707 H         1 <0>         0.1193
@<TRIPOS>BOND
     1    1    2 1
     2    1   28 1
     3    1   29 1
     4    1   30 1
     5    2    3 1
     6    3    8 ar
     7    3    4 ar
     8    4    5 ar
     9    4   31 1
    10    5    6 ar
    11    5   32 1
    12    6   11 1
    13    6    7 ar
    14    7    8 ar
    15    7    9 1
    16    8   33 1
    17    9   10 2
    18    9   20 1
    19   10   11 1
    20   10   34 1
    21   11   12 1
    22   12   13 1
    23   12   35 1
    24   12   36 1
    25   13   18 ar
    26   13   14 ar
    27   14   15 ar
    28   14   37 1
    29   15   16 ar
    30   15   38 1
    31   16   17 ar
    32   16   19 1
    33   17   18 ar
    34   17   39 1
    35   18   40 1
    36   20   21 1
    37   20   27 2
    38   21   22 1
    39   21   41 1
    40   21   42 1
    41   22   23 2
    42   22   24 1
    43   24   25 2
    44   24   26 1
@<TRIPOS>MOLECULE
CHEMBL1159989
   37    38     0     0     0
SMALL
USER_CHARGES

@<TRIPOS>ATOM
      1 C1         -0.0169    1.3942    0.0097 C.ar      1 <0>        -0.0243
      2 C2          1.1703    2.0898    0.0021 C.ar      1 <0>        -0.1348
      3 C3          2.3885    1.4189   -0.0116 C.ar      1 <0>        -0.0893
      4 C4          2.4152    0.0398   -0.0142 C.ar      1 <0>        -0.1113
      5 C5          1.2272   -0.6728   -0.0104 C.ar      1 <0>        -0.0866
      6 C6          0.0021   -0.0041    0.0020 C.ar      1 <0>        -0.0907
      7 C7         -1.2584   -0.7637    0.0065 C.2       1 <0>         0.3713
      8 C8         -2.5773   -0.0349    0.0194 C.3       1 <0>        -0.2150
      9 C9         -3.7042   -1.0355    0.0217 C.2       1 <0>         0.2921
     10 O1         -3.4613   -2.2185    0.0137 O.2       1 <0>        -0.4206
     11 C10        -5.1214   -0.5642    0.0339 C.2       1 <0>         0.4680
     12 O2         -6.0340   -1.3745    0.0358 O.co2     1 <0>        -0.6345
     13 O3         -5.3668    0.6313    0.0421 O.co2     1 <0>        -0.6649
     14 O4         -1.2357   -1.9760   -0.0002 O.2       1 <0>        -0.3879
     15 C11         3.7008   -0.7459   -0.0123 C.3       1 <0>         0.1518
     16 C12         4.8703    0.1356   -0.4453 C.3       1 <0>        -0.1235
     17 C13         4.8491    1.4160    0.3977 C.3       1 <0>        -0.1245
     18 C14         3.6439    2.2523   -0.0271 C.3       1 <0>         0.1504
     19 N1          3.4876    3.3784    0.8969 N.pl3     1 <0>        -0.3723
     20 N2          2.7159    4.1698    0.6929 N.1       1 <0>         0.2725
     21 N3          1.9607    4.9443    0.4933 N.1       1 <0>         0.2064
     22 N4          3.5782   -1.8747   -0.9380 N.pl3     1 <0>        -0.3772
     23 N5          2.8386   -2.6949   -0.7292 N.1       1 <0>         0.2647
     24 N6          2.1147   -3.4976   -0.5250 N.1       1 <0>         0.2235
     25 H1         -0.9574    1.9248    0.0260 H         1 <0>         0.1725
     26 H2          1.1560    3.1697    0.0065 H         1 <0>         0.1113
     27 H3          1.2491   -1.7525   -0.0173 H         1 <0>         0.1153
     28 H4         -2.6408    0.5858    0.9132 H         1 <0>         0.1336
     29 H5          3.8890   -1.1246    0.9923 H         1 <0>         0.1602
     30 H6          5.8089   -0.3946   -0.2840 H         1 <0>         0.1350
     31 H7          4.7680    0.3890   -1.5005 H         1 <0>         0.1151
     32 H8          4.7640    1.1591    1.4535 H         1 <0>         0.1153
     33 H9          5.7658    1.9813    0.2297 H         1 <0>         0.1348
     34 H10         3.8089    2.6349   -1.0343 H         1 <0>         0.1622
     35 H11         4.0501    3.4410    1.6847 H         1 <0>         0.4842
     36 H12         4.1354   -1.9143   -1.7310 H         1 <0>         0.4831
     37 H13        -2.6529    0.5954   -0.8667 H         1 <0>         0.1338
@<TRIPOS>BOND
     1    1    6 ar
     2    1    2 ar
     3    1   25 1
     4    2    3 ar
     5    2   26 1
     6    3   18 1
     7    3    4 ar
     8    4    5 ar
     9    4   15 1
    10    5    6 ar
    11    5   27 1
    12    6    7 1
    13    7    8 1
    14    7   14 2
    15    8    9 1
    16    8   28 1
    17    8   37 1
    18    9   10 2
    19    9   11 1
    20   11   12 2
    21   11   13 1
    22   15   16 1
    23   15   22 1
    24   15   29 1
    25   16   17 1
    26   16   30 1
    27   16   31 1
    28   17   18 1
    29   17   32 1
    30   17   33 1
    31   18   19 1
    32   18   34 1
    33   19   20 2
    34   19   35 1
    35   20   21 2
    36   22   23 2
    37   22   36 1
    38   23   24 2
@<TRIPOS>MOLECULE
CHEMBL1159989__1
   37    38     0     0     0
SMALL
USER_CHARGES

@<TRIPOS>ATOM
      1 C1         -0.0169    1.3942    0.0097 C.ar      1 <0>        -0.0358
      2 C2          1.1703    2.0898    0.0021 C.ar      1 <0>        -0.1092
      3 C3          2.3885    1.4189   -0.0116 C.ar      1 <0>        -0.1103
      4 C4          2.4152    0.0398   -0.0142 C.ar      1 <0>        -0.1075
      5 C5          1.2272   -0.6728   -0.0104 C.ar      1 <0>        -0.0962
      6 C6          0.0021   -0.0041    0.0020 C.ar      1 <0>        -0.0833
      7 C7         -1.2584   -0.7637    0.0065 C.2       1 <0>         0.3703
      8 C8         -2.5773   -0.0349    0.0194 C.3       1 <0>        -0.2148
      9 C9         -3.7042   -1.0355    0.0217 C.2       1 <0>         0.2921
     10 O1         -3.4613   -2.2185    0.0137 O.2       1 <0>        -0.4213
     11 C10        -5.1214   -0.5642    0.0339 C.2       1 <0>         0.4679
     12 O2         -6.0340   -1.3745    0.0358 O.co2     1 <0>        -0.6347
     13 O3         -5.3668    0.6313    0.0421 O.co2     1 <0>        -0.6643
     14 O4         -1.2357   -1.9760   -0.0002 O.2       1 <0>        -0.3882
     15 C11         3.7008   -0.7459   -0.0123 C.3       1 <0>         0.1523
     16 C12         4.8703    0.1356   -0.4453 C.3       1 <0>        -0.1418
     17 C13         4.8491    1.4160    0.3977 C.3       1 <0>        -0.1210
     18 C14         3.6439    2.2523   -0.0271 C.3       1 <0>         0.1481
     19 N1          3.8657    2.7665   -1.3809 N.pl3     1 <0>        -0.3810
     20 N2          3.1352    3.4911   -1.8334 N.1       1 <0>         0.2708
     21 N3          2.4204    4.2003   -2.2763 N.1       1 <0>         0.2072
     22 N4          3.5782   -1.8747   -0.9380 N.pl3     1 <0>        -0.3799
     23 N5          2.8386   -2.6949   -0.7292 N.1       1 <0>         0.2640
     24 N6          2.1147   -3.4976   -0.5250 N.1       1 <0>         0.2276
     25 H1         -0.9574    1.9248    0.0260 H         1 <0>         0.1727
     26 H2          1.1560    3.1697    0.0065 H         1 <0>         0.1433
     27 H3          1.2491   -1.7525   -0.0173 H         1 <0>         0.1134
     28 H4         -2.6408    0.5858    0.9132 H         1 <0>         0.1351
     29 H5          3.8890   -1.1246    0.9923 H         1 <0>         0.1630
     30 H6          5.8089   -0.3946   -0.2840 H         1 <0>         0.1351
     31 H7          4.7680    0.3890   -1.5005 H         1 <0>         0.0946
     32 H8          4.7640    1.1591    1.4535 H         1 <0>         0.1436
     33 H9          5.7658    1.9813    0.2297 H         1 <0>         0.1333
     34 H10         3.5276    3.0901    0.6604 H         1 <0>         0.1639
     35 H11         4.6428    2.4817   -1.8866 H         1 <0>         0.4770
     36 H12         4.1354   -1.9143   -1.7310 H         1 <0>         0.4810
     37 H13        -2.6529    0.5954   -0.8667 H         1 <0>         0.1332
@<TRIPOS>BOND
     1    1    6 ar
     2    1    2 ar
     3    1   25 1
     4    2    3 ar
     5    2   26 1
     6    3   18 1
     7    3    4 ar
     8    4    5 ar
     9    4   15 1
    10    5    6 ar
    11    5   27 1
    12    6    7 1
    13    7    8 1
    14    7   14 2
    15    8    9 1
    16    8   28 1
    17    8   37 1
    18    9   10 2
    19    9   11 1
    20   11   12 2
    21   11   13 1
    22   15   16 1
    23   15   22 1
    24   15   29 1
    25   16   17 1
    26   16   30 1
    27   16   31 1
    28   17   18 1
    29   17   32 1
    30   17   33 1
    31   18   19 1
    32   18   34 1
    33   19   20 2
    34   19   35 1
    35   20   21 2
    36   22   23 2
    37   22   36 1
    38   23   24 2
@<TRIPOS>MOLECULE
CHEMBL1159989__2
   37    38     0     0     0
SMALL
USER_CHARGES

@<TRIPOS>ATOM
      1 C1         -0.0169    1.3942    0.0097 C.ar      1 <0>        -0.0172
      2 C2          1.1703    2.0898    0.0021 C.ar      1 <0>        -0.1434
      3 C3          2.3885    1.4189   -0.0116 C.ar      1 <0>        -0.0855
      4 C4          2.4152    0.0398   -0.0142 C.ar      1 <0>        -0.1304
      5 C5          1.2272   -0.6728   -0.0104 C.ar      1 <0>        -0.0617
      6 C6          0.0021   -0.0041    0.0020 C.ar      1 <0>        -0.1007
      7 C7         -1.2584   -0.7637    0.0065 C.2       1 <0>         0.3705
      8 C8         -2.5773   -0.0349    0.0194 C.3       1 <0>        -0.2151
      9 C9         -3.7042   -1.0355    0.0217 C.2       1 <0>         0.2915
     10 O1         -3.4613   -2.2185    0.0137 O.2       1 <0>        -0.4200
     11 C10        -5.1214   -0.5642    0.0339 C.2       1 <0>         0.4680
     12 O2         -6.0340   -1.3745    0.0358 O.co2     1 <0>        -0.6347
     13 O3         -5.3668    0.6313    0.0421 O.co2     1 <0>        -0.6655
     14 O4         -1.2357   -1.9760   -0.0002 O.2       1 <0>        -0.3848
     15 C11         3.7008   -0.7459   -0.0123 C.3       1 <0>         0.1485
     16 C12         4.8703    0.1356   -0.4453 C.3       1 <0>        -0.1196
     17 C13         4.8491    1.4160    0.3977 C.3       1 <0>        -0.1427
     18 C14         3.6439    2.2523   -0.0271 C.3       1 <0>         0.1508
     19 N1          3.4876    3.3784    0.8969 N.pl3     1 <0>        -0.3750
     20 N2          2.7159    4.1698    0.6929 N.1       1 <0>         0.2717
     21 N3          1.9607    4.9443    0.4933 N.1       1 <0>         0.2107
     22 N4          3.9537   -1.2549    1.3380 N.pl3     1 <0>        -0.3828
     23 N5          3.2550   -2.0075    1.7949 N.1       1 <0>         0.2666
     24 N6          2.5712   -2.7441    2.2420 N.1       1 <0>         0.2157
     25 H1         -0.9574    1.9248    0.0260 H         1 <0>         0.1714
     26 H2          1.1560    3.1697    0.0065 H         1 <0>         0.1094
     27 H3          1.2491   -1.7525   -0.0173 H         1 <0>         0.1458
     28 H4         -2.6408    0.5858    0.9132 H         1 <0>         0.1317
     29 H5          3.6096   -1.5858   -0.7010 H         1 <0>         0.1624
     30 H6          5.8089   -0.3946   -0.2840 H         1 <0>         0.1335
     31 H7          4.7680    0.3890   -1.5005 H         1 <0>         0.1433
     32 H8          4.7640    1.1591    1.4535 H         1 <0>         0.0952
     33 H9          5.7658    1.9813    0.2297 H         1 <0>         0.1352
     34 H10         3.8089    2.6349   -1.0343 H         1 <0>         0.1652
     35 H11         4.0501    3.4410    1.6847 H         1 <0>         0.4821
     36 H12         4.7241   -0.9424    1.8377 H         1 <0>         0.4764
     37 H13        -2.6529    0.5954   -0.8667 H         1 <0>         0.1335
@<TRIPOS>BOND
     1    1    6 ar
     2    1    2 ar
     3    1   25 1
     4    2    3 ar
     5    2   26 1
     6    3   18 1
     7    3    4 ar
     8    4    5 ar
     9    4   15 1
    10    5    6 ar
    11    5   27 1
    12    6    7 1
    13    7    8 1
    14    7   14 2
    15    8    9 1
    16    8   28 1
    17    8   37 1
    18    9   10 2
    19    9   11 1
    20   11   12 2
    21   11   13 1
    22   15   16 1
    23   15   22 1
    24   15   29 1
    25   16   17 1
    26   16   30 1
    27   16   31 1
    28   17   18 1
    29   17   32 1
    30   17   33 1
    31   18   19 1
    32   18   34 1
    33   19   20 2
    34   19   35 1
    35   20   21 2
    36   22   23 2
    37   22   36 1
    38   23   24 2
@<TRIPOS>MOLECULE
CHEMBL1159989__3
   37    38     0     0     0
SMALL
USER_CHARGES

@<TRIPOS>ATOM
      1 C1         -0.0169    1.3942    0.0097 C.ar      1 <0>        -0.0243
      2 C2          1.1703    2.0898    0.0021 C.ar      1 <0>        -0.1348
      3 C3          2.3885    1.4189   -0.0156 C.ar      1 <0>        -0.0893
      4 C4          2.4151    0.0399   -0.0284 C.ar      1 <0>        -0.1113
      5 C5          1.2271   -0.6728   -0.0163 C.ar      1 <0>        -0.0866
      6 C6          0.0021   -0.0041    0.0020 C.ar      1 <0>        -0.0907
      7 C7         -1.2583   -0.7637    0.0137 C.2       1 <0>         0.3712
      8 C8         -2.5772   -0.0349    0.0340 C.3       1 <0>        -0.2150
      9 C9         -3.7040   -1.0356    0.0427 C.2       1 <0>         0.2920
     10 O1         -3.4611   -2.2186    0.0333 O.2       1 <0>        -0.4206
     11 C10        -5.1211   -0.5643    0.0628 C.2       1 <0>         0.4681
     12 O2         -6.0336   -1.3747    0.0699 O.co2     1 <0>        -0.6345
     13 O3         -5.3665    0.6311    0.0722 O.co2     1 <0>        -0.6648
     14 O4         -1.2356   -1.9760    0.0069 O.2       1 <0>        -0.3879
     15 C11         3.7003   -0.7456   -0.0642 C.3       1 <0>         0.1519
     16 C12         4.8783    0.1313    0.3550 C.3       1 <0>        -0.1234
     17 C13         4.8405    1.4207   -0.4735 C.3       1 <0>        -0.1245
     18 C14         3.6440    2.2522   -0.0161 C.3       1 <0>         0.1504
     19 N1          3.4695    3.3882   -0.9246 N.pl3     1 <0>        -0.3722
     20 N2          2.7021    4.1772   -0.6969 N.1       1 <0>         0.2725
     21 N3          1.9511    4.9494   -0.4740 N.1       1 <0>         0.2064
     22 N4          3.5960   -1.8844    0.8515 N.pl3     1 <0>        -0.3773
     23 N5          2.8522   -2.7024    0.6486 N.1       1 <0>         0.2648
     24 N6          2.1244   -3.5029    0.4501 N.1       1 <0>         0.2235
     25 H1         -0.9574    1.9248    0.0260 H         1 <0>         0.1725
     26 H2          1.1560    3.1696    0.0096 H         1 <0>         0.1113
     27 H3          1.2490   -1.7525   -0.0216 H         1 <0>         0.1154
     28 H4         -2.6356    0.5858    0.9281 H         1 <0>         0.1338
     29 H5          3.8685   -1.1135   -1.0764 H         1 <0>         0.1602
     30 H6          4.7968    0.3733    1.4147 H         1 <0>         0.1151
     31 H7          5.8134   -0.3971    0.1695 H         1 <0>         0.1350
     32 H8          5.7604    1.9843   -0.3177 H         1 <0>         0.1348
     33 H9          4.7344    1.1751   -1.5302 H         1 <0>         0.1153
     34 H10         3.8290    2.6240    0.9917 H         1 <0>         0.1622
     35 H11         4.0162    3.4593   -1.7227 H         1 <0>         0.4842
     36 H12         4.1687   -1.9325    1.6329 H         1 <0>         0.4831
     37 H13        -2.6578    0.5953   -0.8517 H         1 <0>         0.1336
@<TRIPOS>BOND
     1    1    6 ar
     2    1    2 ar
     3    1   25 1
     4    2    3 ar
     5    2   26 1
     6    3   18 1
     7    3    4 ar
     8    4    5 ar
     9    4   15 1
    10    5    6 ar
    11    5   27 1
    12    6    7 1
    13    7    8 1
    14    7   14 2
    15    8    9 1
    16    8   28 1
    17    8   37 1
    18    9   10 2
    19    9   11 1
    20   11   12 2
    21   11   13 1
    22   15   16 1
    23   15   22 1
    24   15   29 1
    25   16   17 1
    26   16   30 1
    27   16   31 1
    28   17   18 1
    29   17   32 1
    30   17   33 1
    31   18   19 1
    32   18   34 1
    33   19   20 2
    34   19   35 1
    35   20   21 2
    36   22   23 2
    37   22   36 1
    38   23   24 2
@<TRIPOS>MOLECULE
CHEMBL1159990
   48    49     0     0     0
SMALL
USER_CHARGES

@<TRIPOS>ATOM
      1 C1         -0.0187    1.5258    0.0104 C.3       1 <0>        -0.1252
      2 C2          0.0021   -0.0041    0.0020 C.3       1 <0>        -0.0909
      3 C3          0.7421   -0.5109    1.2415 C.3       1 <0>        -0.0561
      4 C4          2.1559    0.0107    1.2308 C.ar      1 <0>        -0.0359
      5 C5          3.1553   -0.7181    0.6133 C.ar      1 <0>        -0.0784
      6 C6          4.4538   -0.2439    0.6007 C.ar      1 <0>        -0.1415
      7 C7          4.7559    0.9646    1.2076 C.ar      1 <0>         0.0498
      8 C8          3.7499    1.6984    1.8288 C.ar      1 <0>         0.0603
      9 C9          2.4495    1.2196    1.8336 C.ar      1 <0>        -0.1251
     10 O1          4.0414    2.8850    2.4259 O.3       1 <0>        -0.4943
     11 O2          6.0328    1.4323    1.1966 O.3       1 <0>        -0.4957
     12 C10         0.7074   -0.4901   -1.2379 C.2       1 <0>         0.5144
     13 O3          1.3143   -1.5474   -1.2191 O.co2     1 <0>        -0.7040
     14 O4          0.6713    0.1740   -2.2597 O.co2     1 <0>        -0.7063
     15 C11        -1.4333   -0.5336    0.0129 C.3       1 <0>        -0.0936
     16 C12        -1.4126   -2.0635    0.0045 C.3       1 <0>        -0.1115
     17 C13        -2.1733   -0.0268   -1.2266 C.3       1 <0>        -0.0599
     18 C14        -3.5871   -0.5484   -1.2160 C.ar      1 <0>        -0.0333
     19 C15        -3.8797   -1.7602   -1.8138 C.ar      1 <0>        -0.1084
     20 C16        -5.1751   -2.2430   -1.8067 C.ar      1 <0>        -0.1371
     21 C17        -6.1835   -1.5123   -1.1990 C.ar      1 <0>         0.0489
     22 C18        -5.8888   -0.2929   -0.5969 C.ar      1 <0>         0.0750
     23 C19        -4.5875    0.1831   -0.6034 C.ar      1 <0>        -0.1053
     24 O5         -6.8751    0.4280    0.0008 O.3       1 <0>        -0.4952
     25 O6         -7.4584   -1.9856   -1.1915 O.3       1 <0>        -0.4950
     26 C20        -2.1387   -0.0476    1.2528 C.2       1 <0>         0.5146
     27 O7         -2.2645    1.1484    1.4533 O.co2     1 <0>        -0.6988
     28 O8         -2.5836   -0.8505    2.0553 O.co2     1 <0>        -0.7084
     29 H1          1.0039    1.9031    0.0027 H         1 <0>         0.0191
     30 H2         -0.5459    1.8868   -0.8726 H         1 <0>         0.0441
     31 H3         -0.5289    1.8773    0.9072 H         1 <0>         0.0769
     32 H4          0.2319   -0.1594    2.1383 H         1 <0>         0.0588
     33 H5          0.7568   -1.6008    1.2356 H         1 <0>         0.0736
     34 H6          2.9211   -1.6601    0.1399 H         1 <0>         0.1541
     35 H7          5.2328   -0.8155    0.1182 H         1 <0>         0.1208
     36 H8          1.6662    1.7890    2.3118 H         1 <0>         0.1283
     37 H9          3.9644    3.6498    1.8392 H         1 <0>         0.3755
     38 H10         6.2411    1.9892    0.4340 H         1 <0>         0.3732
     39 H11        -0.8854   -2.4246    0.8875 H         1 <0>         0.0441
     40 H12        -2.4352   -2.4408    0.0122 H         1 <0>         0.0361
     41 H13        -0.9024   -2.4150   -0.8923 H         1 <0>         0.0445
     42 H14        -2.1881    1.0631   -1.2207 H         1 <0>         0.0724
     43 H15        -1.6631   -0.3783   -2.1234 H         1 <0>         0.0743
     44 H16        -3.0947   -2.3307   -2.2877 H         1 <0>         0.1262
     45 H17        -5.4012   -3.1895   -2.2750 H         1 <0>         0.1218
     46 H18        -4.3555    1.1274   -0.1335 H         1 <0>         0.1378
     47 H19        -7.0013    0.2211    0.9370 H         1 <0>         0.3807
     48 H20        -7.6683   -2.5381   -0.4261 H         1 <0>         0.3742
@<TRIPOS>BOND
     1    1    2 1
     2    1   29 1
     3    1   30 1
     4    1   31 1
     5    2    3 1
     6    2   12 1
     7    2   15 1
     8    3    4 1
     9    3   32 1
    10    3   33 1
    11    4    9 ar
    12    4    5 ar
    13    5    6 ar
    14    5   34 1
    15    6    7 ar
    16    6   35 1
    17    7    8 ar
    18    7   11 1
    19    8    9 ar
    20    8   10 1
    21    9   36 1
    22   10   37 1
    23   11   38 1
    24   12   13 2
    25   12   14 1
    26   15   16 1
    27   15   17 1
    28   15   26 1
    29   16   39 1
    30   16   40 1
    31   16   41 1
    32   17   18 1
    33   17   42 1
    34   17   43 1
    35   18   23 ar
    36   18   19 ar
    37   19   20 ar
    38   19   44 1
    39   20   21 ar
    40   20   45 1
    41   21   22 ar
    42   21   25 1
    43   22   23 ar
    44   22   24 1
    45   23   46 1
    46   24   47 1
    47   25   48 1
    48   26   27 2
    49   26   28 1
@<TRIPOS>MOLECULE
CHEMBL1159990__1
   48    49     0     0     0
SMALL
USER_CHARGES

@<TRIPOS>ATOM
      1 C1         -0.0187    1.5258    0.0104 C.3       1 <0>        -0.1225
      2 C2          0.0021   -0.0041    0.0020 C.3       1 <0>        -0.0888
      3 C3          0.7421   -0.5109    1.2415 C.3       1 <0>        -0.0706
      4 C4          2.1559    0.0107    1.2308 C.ar      1 <0>        -0.0305
      5 C5          3.1553   -0.7181    0.6133 C.ar      1 <0>        -0.0709
      6 C6          4.4538   -0.2439    0.6007 C.ar      1 <0>        -0.1411
      7 C7          4.7559    0.9646    1.2076 C.ar      1 <0>         0.0473
      8 C8          3.7499    1.6984    1.8288 C.ar      1 <0>         0.0554
      9 C9          2.4495    1.2196    1.8336 C.ar      1 <0>        -0.1365
     10 O1          4.0414    2.8850    2.4259 O.3       1 <0>        -0.4957
     11 O2          6.0328    1.4323    1.1966 O.3       1 <0>        -0.4963
     12 C10         0.7074   -0.4901   -1.2379 C.2       1 <0>         0.5155
     13 O3          1.3143   -1.5474   -1.2191 O.co2     1 <0>        -0.6513
     14 O4          0.6713    0.1740   -2.2597 O.co2     1 <0>        -0.7350
     15 C11        -1.4333   -0.5336    0.0129 C.3       1 <0>        -0.0981
     16 C12        -2.1494   -0.0402    1.2717 C.3       1 <0>        -0.1227
     17 C13        -2.1733   -0.0268   -1.2266 C.3       1 <0>        -0.0567
     18 C14        -3.5871   -0.5484   -1.2160 C.ar      1 <0>        -0.0258
     19 C15        -3.8797   -1.7602   -1.8138 C.ar      1 <0>        -0.0218
     20 C16        -5.1751   -2.2430   -1.8067 C.ar      1 <0>        -0.1401
     21 C17        -6.1835   -1.5123   -1.1990 C.ar      1 <0>         0.0527
     22 C18        -5.8888   -0.2929   -0.5969 C.ar      1 <0>         0.0510
     23 C19        -4.5875    0.1831   -0.6034 C.ar      1 <0>        -0.1322
     24 O5         -6.8751    0.4280    0.0008 O.3       1 <0>        -0.4964
     25 O6         -7.4584   -1.9856   -1.1915 O.3       1 <0>        -0.4976
     26 C20        -1.4129   -2.0405    0.0046 C.2       1 <0>         0.4924
     27 O7         -0.3489   -2.6357   -0.0088 O.co2     1 <0>        -0.6353
     28 O8         -2.4603   -2.6644    0.0112 O.co2     1 <0>        -0.7158
     29 H1          1.0039    1.9031    0.0027 H         1 <0>         0.0349
     30 H2         -0.5459    1.8868   -0.8726 H         1 <0>         0.0502
     31 H3         -0.5289    1.8773    0.9072 H         1 <0>         0.0244
     32 H4          0.2319   -0.1594    2.1383 H         1 <0>         0.0345
     33 H5          0.7568   -1.6008    1.2356 H         1 <0>         0.1206
     34 H6          2.9211   -1.6601    0.1399 H         1 <0>         0.1613
     35 H7          5.2328   -0.8155    0.1182 H         1 <0>         0.1208
     36 H8          1.6662    1.7890    2.3118 H         1 <0>         0.1204
     37 H9          3.9644    3.6498    1.8392 H         1 <0>         0.3730
     38 H10         6.2411    1.9892    0.4340 H         1 <0>         0.3723
     39 H11        -2.1642    1.0497    1.2777 H         1 <0>         0.0318
     40 H12        -3.1720   -0.4175    1.2794 H         1 <0>         0.0485
     41 H13        -1.6223   -0.4013    2.1547 H         1 <0>         0.0396
     42 H14        -2.1881    1.0631   -1.2207 H         1 <0>         0.0533
     43 H15        -1.6631   -0.3783   -2.1234 H         1 <0>         0.0790
     44 H16        -3.0947   -2.3307   -2.2877 H         1 <0>         0.1237
     45 H17        -5.4012   -3.1895   -2.2750 H         1 <0>         0.1174
     46 H18        -4.3555    1.1274   -0.1335 H         1 <0>         0.1186
     47 H19        -7.0013    0.2211    0.9370 H         1 <0>         0.3713
     48 H20        -7.6683   -2.5381   -0.4261 H         1 <0>         0.3719
@<TRIPOS>BOND
     1    1    2 1
     2    1   29 1
     3    1   30 1
     4    1   31 1
     5    2    3 1
     6    2   12 1
     7    2   15 1
     8    3    4 1
     9    3   32 1
    10    3   33 1
    11    4    9 ar
    12    4    5 ar
    13    5    6 ar
    14    5   34 1
    15    6    7 ar
    16    6   35 1
    17    7    8 ar
    18    7   11 1
    19    8    9 ar
    20    8   10 1
    21    9   36 1
    22   10   37 1
    23   11   38 1
    24   12   13 2
    25   12   14 1
    26   15   16 1
    27   15   17 1
    28   15   26 1
    29   16   39 1
    30   16   40 1
    31   16   41 1
    32   17   18 1
    33   17   42 1
    34   17   43 1
    35   18   23 ar
    36   18   19 ar
    37   19   20 ar
    38   19   44 1
    39   20   21 ar
    40   20   45 1
    41   21   22 ar
    42   21   25 1
    43   22   23 ar
    44   22   24 1
    45   23   46 1
    46   24   47 1
    47   25   48 1
    48   26   27 2
    49   26   28 1
@<TRIPOS>MOLECULE
CHEMBL1159990__2
   48    49     0     0     0
SMALL
USER_CHARGES

@<TRIPOS>ATOM
      1 C1         -0.0122   -0.7398    1.6078 C.3       1 <0>        -0.1093
      2 C2          0.2147   -0.0580    0.2570 C.3       1 <0>        -0.0912
      3 C3         -1.0229   -0.2447   -0.6229 C.3       1 <0>        -0.0708
      4 C4         -2.2193    0.3710    0.0559 C.ar      1 <0>        -0.0333
      5 C5         -2.9923   -0.3889    0.9141 C.ar      1 <0>        -0.1092
      6 C6         -4.0908    0.1712    1.5391 C.ar      1 <0>        -0.1387
      7 C7         -4.4189    1.4972    1.3065 C.ar      1 <0>         0.0473
      8 C8         -3.6406    2.2622    0.4431 C.ar      1 <0>         0.0727
      9 C9         -2.5381    1.6959   -0.1765 C.ar      1 <0>        -0.1064
     10 O1         -3.9586    3.5640    0.2115 O.3       1 <0>        -0.4952
     11 O2         -5.4995    2.0496    1.9202 O.3       1 <0>        -0.4952
     12 C10         0.4610    1.4131    0.4720 C.2       1 <0>         0.5164
     13 O3          0.5257    2.1665   -0.4843 O.co2     1 <0>        -0.7043
     14 O4          0.5954    1.8499    1.6024 O.co2     1 <0>        -0.7097
     15 C11         1.4294   -0.6830   -0.4321 C.3       1 <0>        -0.0922
     16 C12         2.6940   -0.3489    0.3616 C.3       1 <0>        -0.1095
     17 C13         1.5548   -0.1237   -1.8506 C.3       1 <0>        -0.0644
     18 C14         2.6684   -0.8356   -2.5747 C.ar      1 <0>        -0.0355
     19 C15         3.9589   -0.3441   -2.5088 C.ar      1 <0>        -0.1100
     20 C16         4.9838   -0.9935   -3.1712 C.ar      1 <0>        -0.1390
     21 C17         4.7189   -2.1400   -3.9029 C.ar      1 <0>         0.0478
     22 C18         3.4201   -2.6351   -3.9688 C.ar      1 <0>         0.0725
     23 C19         2.3982   -1.9820   -3.2985 C.ar      1 <0>        -0.1021
     24 O5          3.1551   -3.7600   -4.6855 O.3       1 <0>        -0.4953
     25 O6          5.7260   -2.7799   -4.5555 O.3       1 <0>        -0.4955
     26 C20         1.2565   -2.1788   -0.4953 C.2       1 <0>         0.5174
     27 O7          0.3675   -2.6615   -1.1758 O.co2     1 <0>        -0.7030
     28 O8          2.0058   -2.9061    0.1340 O.co2     1 <0>        -0.7090
     29 H1         -0.1904   -1.8039    1.4523 H         1 <0>         0.0363
     30 H2          0.8695   -0.6068    2.2346 H         1 <0>         0.0455
     31 H3         -0.8776   -0.2945    2.0987 H         1 <0>         0.0372
     32 H4         -0.8612    0.2411   -1.5851 H         1 <0>         0.0694
     33 H5         -1.2011   -1.3087   -0.7784 H         1 <0>         0.0950
     34 H6         -2.7376   -1.4225    1.0962 H         1 <0>         0.1263
     35 H7         -4.6934   -0.4248    2.2085 H         1 <0>         0.1210
     36 H8         -1.9303    2.2885   -0.8442 H         1 <0>         0.1414
     37 H9         -3.5399    4.1858    0.8223 H         1 <0>         0.3799
     38 H10        -5.3015    2.4547    2.7757 H         1 <0>         0.3735
     39 H11         2.6046   -0.7474    1.3722 H         1 <0>         0.0457
     40 H12         3.5593   -0.7942   -0.1293 H         1 <0>         0.0374
     41 H13         2.8190    0.7330    0.4074 H         1 <0>         0.0363
     42 H14         0.6175   -0.2765   -2.3856 H         1 <0>         0.0703
     43 H15         1.7761    0.9425   -1.8025 H         1 <0>         0.0872
     44 H16         4.1667    0.5495   -1.9389 H         1 <0>         0.1252
     45 H17         5.9909   -0.6070   -3.1187 H         1 <0>         0.1206
     46 H18         1.3899   -2.3662   -3.3450 H         1 <0>         0.1429
     47 H19         3.2298   -4.5781   -4.1755 H         1 <0>         0.3800
     48 H20         6.1690   -3.4577   -4.0269 H         1 <0>         0.3736
@<TRIPOS>BOND
     1    1    2 1
     2    1   29 1
     3    1   30 1
     4    1   31 1
     5    2    3 1
     6    2   12 1
     7    2   15 1
     8    3    4 1
     9    3   32 1
    10    3   33 1
    11    4    9 ar
    12    4    5 ar
    13    5    6 ar
    14    5   34 1
    15    6    7 ar
    16    6   35 1
    17    7    8 ar
    18    7   11 1
    19    8    9 ar
    20    8   10 1
    21    9   36 1
    22   10   37 1
    23   11   38 1
    24   12   13 2
    25   12   14 1
    26   15   16 1
    27   15   17 1
    28   15   26 1
    29   16   39 1
    30   16   40 1
    31   16   41 1
    32   17   18 1
    33   17   42 1
    34   17   43 1
    35   18   23 ar
    36   18   19 ar
    37   19   20 ar
    38   19   44 1
    39   20   21 ar
    40   20   45 1
    41   21   22 ar
    42   21   25 1
    43   22   23 ar
    44   22   24 1
    45   23   46 1
    46   24   47 1
    47   25   48 1
    48   26   27 2
    49   26   28 1
@<TRIPOS>MOLECULE
CHEMBL142072
   42    45     0     0     0
SMALL
USER_CHARGES

@<TRIPOS>ATOM
      1 C1          0.0651    1.4071   -0.0321 C.ar      1 <0>        -0.1193
      2 C2          1.2645    2.0942   -0.0463 C.ar      1 <0>        -0.1181
      3 C3          2.4593    1.3990   -0.0559 C.ar      1 <0>        -0.1131
      4 C4          2.4547    0.0167   -0.0509 C.ar      1 <0>        -0.0851
      5 C5          1.2553   -0.6704   -0.0358 C.ar      1 <0>        -0.1123
      6 C6          0.0605    0.0248   -0.0276 C.ar      1 <0>        -0.1165
      7 C7          3.7572   -0.7412   -0.0624 C.3       1 <0>        -0.0450
      8 C8          4.2068   -0.9887    1.3545 C.ar      1 <0>        -0.0345
      9 C9          5.0128   -0.0725    2.0128 C.ar      1 <0>        -0.1399
     10 C10         5.4090   -0.3289    3.3157 C.ar      1 <0>         0.0999
     11 N1          5.0314   -1.4272    3.9330 N.ar      1 <0>        -0.4497
     12 C11         4.2602   -2.3298    3.3389 C.ar      1 <0>         0.0630
     13 C12         3.8195   -2.1343    2.0309 C.ar      1 <0>        -0.1081
     14 C13         3.8601   -3.5519    4.0737 C.2       1 <0>         0.4495
     15 O1          3.0781   -4.3351    3.5706 O.2       1 <0>        -0.4200
     16 C14         4.4094   -3.8182    5.4135 C.ar      1 <0>        -0.1800
     17 C15         5.2105   -2.8484    6.0467 C.ar      1 <0>        -0.0756
     18 C16         5.7268   -3.0720    7.2802 C.ar      1 <0>        -0.1304
     19 C17         5.4670   -4.2840    7.9479 C.ar      1 <0>        -0.0634
     20 C18         5.9939   -4.5347    9.2288 C.ar      1 <0>        -0.0695
     21 C19         5.7046   -5.7302    9.8234 C.ar      1 <0>        -0.1573
     22 C20         4.9072   -6.6610    9.1602 C.ar      1 <0>         0.1207
     23 N2          4.4192   -6.4231    7.9674 N.ar      1 <0>        -0.4527
     24 C21         4.6644   -5.2738    7.3323 C.ar      1 <0>         0.0782
     25 C22         4.1284   -5.0262    6.0496 C.ar      1 <0>         0.2088
     26 O2          3.3535   -5.9555    5.4410 O.3       1 <0>        -0.4621
     27 H1         -0.8683    1.9503   -0.0201 H         1 <0>         0.1228
     28 H2          1.2682    3.1742   -0.0503 H         1 <0>         0.1234
     29 H3          3.3964    1.9358   -0.0678 H         1 <0>         0.1220
     30 H4          1.2517   -1.7504   -0.0322 H         1 <0>         0.1226
     31 H5         -0.8765   -0.5121   -0.0162 H         1 <0>         0.1239
     32 H6          3.6181   -1.6951   -0.5713 H         1 <0>         0.0912
     33 H7          4.5131   -0.1566   -0.5866 H         1 <0>         0.0922
     34 H8          5.3291    0.8321    1.5148 H         1 <0>         0.1425
     35 H9          6.0368    0.3827    3.8313 H         1 <0>         0.1682
     36 H10         3.1883   -2.8671    1.5503 H         1 <0>         0.1470
     37 H11         5.4164   -1.9154    5.5434 H         1 <0>         0.1938
     38 H12         6.3396   -2.3182    7.7519 H         1 <0>         0.1361
     39 H13         6.6105   -3.8019    9.7280 H         1 <0>         0.1439
     40 H14         6.0937   -5.9537   10.8057 H         1 <0>         0.1417
     41 H15         4.6860   -7.6023    9.6413 H         1 <0>         0.1632
     42 H16         3.8475   -6.5853    4.8984 H         1 <0>         0.3979
@<TRIPOS>BOND
     1    1    6 ar
     2    1    2 ar
     3    1   27 1
     4    2    3 ar
     5    2   28 1
     6    3    4 ar
     7    3   29 1
     8    4    5 ar
     9    4    7 1
    10    5    6 ar
    11    5   30 1
    12    6   31 1
    13    7    8 1
    14    7   32 1
    15    7   33 1
    16    8   13 ar
    17    8    9 ar
    18    9   10 ar
    19    9   34 1
    20   10   11 ar
    21   10   35 1
    22   11   12 ar
    23   12   13 ar
    24   12   14 1
    25   13   36 1
    26   14   15 2
    27   14   16 1
    28   16   25 ar
    29   16   17 ar
    30   17   18 ar
    31   17   37 1
    32   18   19 ar
    33   18   38 1
    34   19   24 ar
    35   19   20 ar
    36   20   21 ar
    37   20   39 1
    38   21   22 ar
    39   21   40 1
    40   22   23 ar
    41   22   41 1
    42   23   24 ar
    43   24   25 ar
    44   25   26 1
    45   26   42 1
@<TRIPOS>MOLECULE
CHEMBL142072__1
   41    44     0     0     0
SMALL
USER_CHARGES

@<TRIPOS>ATOM
      1 C1          0.0649    1.4069   -0.0321 C.ar      1 <0>        -0.1243
      2 C2          1.2642    2.0941   -0.0463 C.ar      1 <0>        -0.1210
      3 C3          2.4590    1.3990   -0.0559 C.ar      1 <0>        -0.1141
      4 C4          2.4545    0.0167   -0.0509 C.ar      1 <0>        -0.0774
      5 C5          1.2552   -0.6705   -0.0358 C.ar      1 <0>        -0.1106
      6 C6          0.0604    0.0246   -0.0276 C.ar      1 <0>        -0.1169
      7 C7          3.7571   -0.7411   -0.0623 C.3       1 <0>        -0.0419
      8 C8          4.2067   -0.9886    1.3546 C.ar      1 <0>        -0.0431
      9 C9          5.0126   -0.0724    2.0129 C.ar      1 <0>        -0.1634
     10 C10         5.4088   -0.3288    3.3158 C.ar      1 <0>         0.0911
     11 N1          5.0313   -1.4271    3.9330 N.ar      1 <0>        -0.4433
     12 C11         4.2601   -2.3298    3.3389 C.ar      1 <0>         0.0924
     13 C12         3.8194   -2.1342    2.0310 C.ar      1 <0>        -0.1252
     14 C13         3.8601   -3.5519    4.0737 C.2       1 <0>         0.4388
     15 O1          3.0782   -4.3352    3.5706 O.2       1 <0>        -0.4532
     16 C14         4.4094   -3.8182    5.4135 C.ar      1 <0>        -0.3653
     17 C15         5.2105   -2.8484    6.0467 C.ar      1 <0>         0.0012
     18 C16         5.7268   -3.0720    7.2802 C.ar      1 <0>        -0.2850
     19 C17         5.4670   -4.2840    7.9479 C.ar      1 <0>        -0.0173
     20 C18         5.9939   -4.5347    9.2288 C.ar      1 <0>        -0.1184
     21 C19         5.7046   -5.7302    9.8234 C.ar      1 <0>        -0.1568
     22 C20         4.9072   -6.6610    9.1602 C.ar      1 <0>         0.0385
     23 N2          4.4192   -6.4231    7.9674 N.ar      1 <0>        -0.4169
     24 C21         4.6644   -5.2738    7.3323 C.ar      1 <0>         0.0386
     25 C22         4.1284   -5.0262    6.0496 C.ar      1 <0>         0.3438
     26 O2          3.3535   -5.9555    5.4410 O.3       1 <0>        -0.6108
     27 H1         -0.8686    1.9500   -0.0201 H         1 <0>         0.1198
     28 H2          1.2678    3.1741   -0.0502 H         1 <0>         0.1204
     29 H3          3.3961    1.9359   -0.0676 H         1 <0>         0.1207
     30 H4          1.2516   -1.7505   -0.0322 H         1 <0>         0.1244
     31 H5         -0.8767   -0.5123   -0.0162 H         1 <0>         0.1224
     32 H6          3.6180   -1.6950   -0.5712 H         1 <0>         0.0879
     33 H7          4.5130   -0.1564   -0.5865 H         1 <0>         0.0867
     34 H8          5.3288    0.8323    1.5150 H         1 <0>         0.1315
     35 H9          6.0366    0.3829    3.8314 H         1 <0>         0.1581
     36 H10         3.1883   -2.8671    1.5503 H         1 <0>         0.1416
     37 H11         5.4164   -1.9154    5.5434 H         1 <0>         0.1636
     38 H12         6.3396   -2.3182    7.7519 H         1 <0>         0.1021
     39 H13         6.6105   -3.8019    9.7280 H         1 <0>         0.1220
     40 H14         6.0937   -5.9537   10.8057 H         1 <0>         0.1186
     41 H15         4.6860   -7.6023    9.6413 H         1 <0>         0.1404
@<TRIPOS>BOND
     1    1    6 ar
     2    1    2 ar
     3    1   27 1
     4    2    3 ar
     5    2   28 1
     6    3    4 ar
     7    3   29 1
     8    4    5 ar
     9    4    7 1
    10    5    6 ar
    11    5   30 1
    12    6   31 1
    13    7    8 1
    14    7   32 1
    15    7   33 1
    16    8   13 ar
    17    8    9 ar
    18    9   10 ar
    19    9   34 1
    20   10   11 ar
    21   10   35 1
    22   11   12 ar
    23   12   13 ar
    24   12   14 1
    25   13   36 1
    26   14   15 2
    27   14   16 1
    28   16   25 ar
    29   16   17 ar
    30   17   18 ar
    31   17   37 1
    32   18   19 ar
    33   18   38 1
    34   19   24 ar
    35   19   20 ar
    36   20   21 ar
    37   20   39 1
    38   21   22 ar
    39   21   40 1
    40   22   23 ar
    41   22   41 1
    42   23   24 ar
    43   24   25 ar
    44   25   26 1
@<TRIPOS>MOLECULE
CHEMBL553067
   76    79     0     0     0
SMALL
USER_CHARGES

@<TRIPOS>ATOM
      1 C1         -1.4847    1.0766    1.0175 C.3       1 <0>        -0.1307
      2 C2         -1.3908   -0.4275    1.0218 C.ar      1 <0>        -0.0235
      3 C3         -1.5131   -1.1318   -0.1578 C.ar      1 <0>        -0.1327
      4 C4         -1.4275   -2.5129   -0.1504 C.ar      1 <0>        -0.0855
      5 C5         -1.2235   -3.1965    1.0343 C.ar      1 <0>        -0.1351
      6 C6         -1.1004   -2.5072    2.2264 C.ar      1 <0>        -0.0545
      7 C7         -1.1738   -1.1131    2.2205 C.ar      1 <0>        -0.1459
      8 C8         -1.0198   -0.3581    3.4773 C.2       1 <0>         0.4079
      9 C9         -1.0452   -1.1285    4.7831 C.3       1 <0>        -0.1733
     10 C10        -0.2340   -2.4140    4.5755 C.3       1 <0>        -0.0602
     11 H1         -0.2324   -2.9815    5.5061 H         1 <0>         0.0967
     12 C11        -0.8892   -3.2769    3.5005 C.3       1 <0>         0.1778
     13 C12         0.0219   -4.4725    3.2155 C.3       1 <0>        -0.1824
     14 O1         -2.1509   -3.7565    3.9696 O.3       1 <0>        -0.5456
     15 C13         1.2096   -2.0708    4.2064 C.3       1 <0>        -0.1066
     16 C14         1.8552   -1.3274    5.3722 C.3       1 <0>        -0.0529
     17 H2          1.7739   -1.9342    6.2740 H         1 <0>         0.0808
     18 C15         3.3297   -1.0249    5.0999 C.3       1 <0>         0.0525
     19 H3          3.4192   -0.3329    4.2626 H         1 <0>         0.1005
     20 C16         3.8893   -0.3900    6.3589 C.2       1 <0>         0.3844
     21 O2          5.0032   -0.6678    6.7532 O.2       1 <0>        -0.5378
     22 C17         3.0521    0.5672    7.0871 C.2       1 <0>        -0.5163
     23 C18         1.7298    0.7438    6.7440 C.2       1 <0>         0.3478
     24 C19         1.1297    0.0006    5.5922 C.3       1 <0>        -0.1406
     25 C20        -0.3330   -0.2840    5.8275 C.2       1 <0>         0.3799
     26 O3         -0.9110    0.1394    6.7995 O.2       1 <0>        -0.3947
     27 O4          0.9786    1.6077    7.4429 O.3       1 <0>        -0.5680
     28 C21         3.6287    1.3461    8.1946 C.2       1 <0>         0.5946
     29 O5          2.9671    2.2083    8.7409 O.2       1 <0>        -0.5644
     30 N1          4.8899    1.1040    8.6035 N.am      1 <0>        -0.7253
     31 C22         5.4261    1.8000    9.7759 C.3       1 <0>         0.2868
     32 N2          5.2517    0.9584   10.9672 N.3       1 <0>        -0.6696
     33 C23         6.4734    0.1957   11.2565 C.3       1 <0>         0.1282
     34 C24         7.6135    1.1630   11.5811 C.3       1 <0>         0.0471
     35 O6          7.2265    2.0084   12.6663 O.3       1 <0>        -0.5671
     36 C25         6.2286   -0.7244   12.4541 C.3       1 <0>         0.0951
     37 O7          7.4171   -1.4663   12.7355 O.3       1 <0>        -0.5765
     38 C26         6.8505   -0.6457   10.0355 C.3       1 <0>         0.1001
     39 O8          5.7418   -1.4661    9.6616 O.3       1 <0>        -0.5339
     40 N3          4.0501   -2.2697    4.8007 N.3       1 <0>        -0.5217
     41 C27         5.4418   -1.9939    4.4196 C.3       1 <0>         0.0092
     42 C28         3.9898   -3.1990    5.9368 C.3       1 <0>         0.0104
     43 O9         -0.8763    0.8459    3.4671 O.2       1 <0>        -0.4281
     44 H4         -0.4923    1.5021    0.8687 H         1 <0>         0.0802
     45 H5         -2.1424    1.3972    0.2096 H         1 <0>         0.0620
     46 H6         -1.8872    1.4182    1.9711 H         1 <0>         0.0932
     47 H7         -1.6759   -0.6055   -1.0867 H         1 <0>         0.1284
     48 H8         -1.5210   -3.0609   -1.0764 H         1 <0>         0.1267
     49 H9         -1.1603   -4.2747    1.0284 H         1 <0>         0.1305
     50 H10         0.9806   -4.1169    2.8379 H         1 <0>         0.0810
     51 H11         0.1801   -5.0361    4.1350 H         1 <0>         0.0737
     52 H12        -0.4457   -5.1164    2.4707 H         1 <0>         0.0623
     53 H13        -2.6042   -4.3432    3.3488 H         1 <0>         0.3772
     54 H14         1.7633   -2.9883    4.0071 H         1 <0>         0.1005
     55 H15         1.2188   -1.4371    3.3195 H         1 <0>         0.0664
     56 H16         1.2153    0.6007    4.6862 H         1 <0>         0.1122
     57 H17         5.4426    0.4690    8.1216 H         1 <0>         0.4012
     58 H18         6.4868    2.0012    9.6253 H         1 <0>         0.0393
     59 H19         4.8939    2.7410    9.9147 H         1 <0>         0.0814
     60 H20         4.9740    1.5122   11.7636 H         1 <0>         0.3485
     61 H21         8.5019    0.5967   11.8607 H         1 <0>         0.0574
     62 H22         7.8326    1.7736   10.7051 H         1 <0>         0.0467
     63 H23         7.9028    2.6487   12.9266 H         1 <0>         0.3788
     64 H24         5.9600   -0.1250   13.3239 H         1 <0>         0.0479
     65 H25         5.4164   -1.4135   12.2228 H         1 <0>         0.0628
     66 H26         7.3346   -2.0719   13.4849 H         1 <0>         0.3775
     67 H27         7.1110    0.0128    9.2069 H         1 <0>         0.0371
     68 H28         7.7043   -1.2778   10.2796 H         1 <0>         0.0468
     69 H29         5.9099   -2.0279    8.8927 H         1 <0>         0.3723
     70 H30         5.9489   -1.4849    5.2393 H         1 <0>         0.0664
     71 H31         5.9521   -2.9324    4.2035 H         1 <0>         0.0551
     72 H32         5.4569   -1.3596    3.5333 H         1 <0>         0.0540
     73 H33         2.9492   -3.4409    6.1535 H         1 <0>         0.0615
     74 H34         4.5309   -4.1120    5.6885 H         1 <0>         0.0582
     75 H35         4.4443   -2.7337    6.8114 H         1 <0>         0.0508
     76 H36        -2.0689   -1.3448    5.0886 H         1 <0>         0.1352
@<TRIPOS>BOND
     1    1    2 1
     2    1   44 1
     3    1   45 1
     4    1   46 1
     5    2    7 ar
     6    2    3 ar
     7    3    4 ar
     8    3   47 1
     9    4    5 ar
    10    4   48 1
    11    5    6 ar
    12    5   49 1
    13    6   12 1
    14    6    7 ar
    15    7    8 1
    16    8    9 1
    17    8   43 2
    18    9   25 1
    19    9   10 1
    20    9   76 1
    21   10   11 1
    22   10   12 1
    23   10   15 1
    24   12   13 1
    25   12   14 1
    26   13   50 1
    27   13   51 1
    28   13   52 1
    29   14   53 1
    30   15   16 1
    31   15   54 1
    32   15   55 1
    33   16   17 1
    34   16   24 1
    35   16   18 1
    36   18   19 1
    37   18   20 1
    38   18   40 1
    39   20   21 2
    40   20   22 1
    41   22   23 2
    42   22   28 1
    43   23   24 1
    44   23   27 1
    45   24   25 1
    46   24   56 1
    47   25   26 2
    48   28   29 2
    49   28   30 am
    50   30   31 1
    51   30   57 1
    52   31   32 1
    53   31   58 1
    54   31   59 1
    55   32   33 1
    56   32   60 1
    57   33   34 1
    58   33   36 1
    59   33   38 1
    60   34   35 1
    61   34   61 1
    62   34   62 1
    63   35   63 1
    64   36   37 1
    65   36   64 1
    66   36   65 1
    67   37   66 1
    68   38   39 1
    69   38   67 1
    70   38   68 1
    71   39   69 1
    72   40   41 1
    73   40   42 1
    74   41   70 1
    75   41   71 1
    76   41   72 1
    77   42   73 1
    78   42   74 1
    79   42   75 1
@<TRIPOS>MOLECULE
CHEMBL553067__1
   77    80     0     0     0
SMALL
USER_CHARGES

@<TRIPOS>ATOM
      1 C1         -1.1341    2.3246    0.9900 C.3       1 <0>        -0.1335
      2 C2         -1.1813    0.8208    0.9029 C.ar      1 <0>        -0.0187
      3 C3         -1.3441    0.2034   -0.3196 C.ar      1 <0>        -0.1279
      4 C4         -1.3881   -1.1776   -0.3963 C.ar      1 <0>        -0.0799
      5 C5         -1.2737   -1.9474    0.7470 C.ar      1 <0>        -0.1347
      6 C6         -1.1118   -1.3456    1.9811 C.ar      1 <0>        -0.0657
      7 C7         -1.0544    0.0471    2.0602 C.ar      1 <0>        -0.1527
      8 C8         -0.8570    0.7073    3.3634 C.2       1 <0>         0.4029
      9 C9         -0.9817   -0.1343    4.6186 C.3       1 <0>        -0.1718
     10 C10        -0.2899   -1.4758    4.3443 C.3       1 <0>        -0.0549
     11 H1         -0.3609   -2.0958    5.2380 H         1 <0>         0.1051
     12 C11        -1.0001   -2.2069    3.2082 C.3       1 <0>         0.1791
     13 C12        -0.1989   -3.4640    2.8639 C.3       1 <0>        -0.1854
     14 O1         -2.3107   -2.5923    3.6276 O.3       1 <0>        -0.5423
     15 C13         1.1869   -1.2491    4.0192 C.3       1 <0>        -0.1336
     16 C14         1.8745   -0.6414    5.2384 C.3       1 <0>        -0.0845
     17 H2          1.7180   -1.2909    6.0996 H         1 <0>         0.1084
     18 C15         3.3761   -0.4639    5.0078 C.3       1 <0>        -0.0119
     19 H3          3.5475    0.2657    4.2162 H         1 <0>         0.1538
     20 C16         3.9661    0.0386    6.3120 C.2       1 <0>         0.3898
     21 O2          5.0406   -0.3663    6.7052 O.2       1 <0>        -0.5266
     22 C17         3.2069    1.0253    7.0850 C.2       1 <0>        -0.4824
     23 C18         1.9143    1.3463    6.7334 C.2       1 <0>         0.3440
     24 C19         1.2717    0.7336    5.5288 C.3       1 <0>        -0.1365
     25 C20        -0.2157    0.5749    5.7238 C.2       1 <0>         0.3753
     26 O3         -0.7719    0.9919    6.7112 O.2       1 <0>        -0.3745
     27 O4          1.2327    2.2338    7.4727 O.3       1 <0>        -0.5243
     28 C21         3.8304    1.6782    8.2471 C.2       1 <0>         0.5948
     29 O5          3.1714    2.4129    8.9581 O.2       1 <0>        -0.5450
     30 N1          5.1317    1.4621    8.5236 N.am      1 <0>        -0.7200
     31 C22         5.7224    2.0143    9.7453 C.3       1 <0>         0.2841
     32 N2          5.6901    0.9994   10.8068 N.3       1 <0>        -0.6713
     33 C23         6.9696    0.2823   10.8887 C.3       1 <0>         0.1277
     34 C24         7.3019   -0.3255    9.5245 C.3       1 <0>         0.0994
     35 O6          6.2153   -1.1465    9.0914 O.3       1 <0>        -0.5309
     36 C25         8.0759    1.2579   11.2954 C.3       1 <0>         0.0470
     37 O7          7.7800    1.8039   12.5824 O.3       1 <0>        -0.5666
     38 C26         6.8638   -0.8322   11.9315 C.3       1 <0>         0.0959
     39 O8          8.1085   -1.5297   12.0111 O.3       1 <0>        -0.5769
     40 N3          3.9833   -1.7509    4.6433 N.4       1 <0>        -0.3683
     41 C27         5.3971   -1.5459    4.3009 C.3       1 <0>        -0.0583
     42 C28         3.8839   -2.6781    5.7783 C.3       1 <0>        -0.0671
     43 O9         -0.6015    1.8908    3.4297 O.2       1 <0>        -0.4226
     44 H4         -0.1034    2.6626    0.8829 H         1 <0>         0.0809
     45 H5         -1.7419    2.7539    0.1936 H         1 <0>         0.0670
     46 H6         -1.5230    2.6449    1.9566 H         1 <0>         0.0938
     47 H7         -1.4375    0.7975   -1.2167 H         1 <0>         0.1328
     48 H8         -1.5129   -1.6577   -1.3556 H         1 <0>         0.1310
     49 H9         -1.3114   -3.0243    0.6754 H         1 <0>         0.1319
     50 H10         0.7965   -3.1786    2.5236 H         1 <0>         0.0697
     51 H11        -0.1134   -4.0942    3.7492 H         1 <0>         0.0758
     52 H12        -0.7090   -4.0149    2.0737 H         1 <0>         0.0719
     53 H13        -2.8037   -3.0953    2.9649 H         1 <0>         0.3852
     54 H14         1.6565   -2.2012    3.7721 H         1 <0>         0.0806
     55 H15         1.2738   -0.5670    3.1734 H         1 <0>         0.0882
     56 H16         1.4320    1.3762    4.6631 H         1 <0>         0.1245
     57 H17         5.6771    0.9410    7.9138 H         1 <0>         0.3970
     58 H18         6.7551    2.3039    9.5507 H         1 <0>         0.0459
     59 H19         5.1532    2.8886   10.0611 H         1 <0>         0.0864
     60 H20         5.4499    1.4129   11.6953 H         1 <0>         0.3535
     61 H21         7.4647    0.4732    8.8008 H         1 <0>         0.0357
     62 H22         8.2045   -0.9310    9.6066 H         1 <0>         0.0503
     63 H23         6.3572   -1.5652    8.2314 H         1 <0>         0.3655
     64 H24         9.0290    0.7306   11.3348 H         1 <0>         0.0580
     65 H25         8.1365    2.0638   10.5640 H         1 <0>         0.0462
     66 H26         8.4407    2.4323   12.9044 H         1 <0>         0.3825
     67 H27         6.6272   -0.3992   12.9034 H         1 <0>         0.0507
     68 H28         6.0758   -1.5273   11.6418 H         1 <0>         0.0605
     69 H29         8.1143   -2.2518   12.6543 H         1 <0>         0.3805
     70 H30         5.9427   -1.2240    5.1879 H         1 <0>         0.1516
     71 H31         5.8209   -2.4802    3.9327 H         1 <0>         0.1139
     72 H32         5.4766   -0.7813    3.5281 H         1 <0>         0.1122
     73 H33         2.8348   -2.8965    5.9783 H         1 <0>         0.1147
     74 H34         4.4083   -3.6032    5.5389 H         1 <0>         0.1184
     75 H35         4.3346   -2.2227    6.6601 H         1 <0>         0.1498
     76 H36        -2.0273   -0.2707    4.8945 H         1 <0>         0.1455
     77 H37         3.4976   -2.1389    3.8485 H         1 <0>         0.4096
@<TRIPOS>BOND
     1    1    2 1
     2    1   44 1
     3    1   45 1
     4    1   46 1
     5    2    7 ar
     6    2    3 ar
     7    3    4 ar
     8    3   47 1
     9    4    5 ar
    10    4   48 1
    11    5    6 ar
    12    5   49 1
    13    6   12 1
    14    6    7 ar
    15    7    8 1
    16    8    9 1
    17    8   43 2
    18    9   25 1
    19    9   10 1
    20    9   76 1
    21   10   11 1
    22   10   12 1
    23   10   15 1
    24   12   13 1
    25   12   14 1
    26   13   50 1
    27   13   51 1
    28   13   52 1
    29   14   53 1
    30   15   16 1
    31   15   54 1
    32   15   55 1
    33   16   17 1
    34   16   24 1
    35   16   18 1
    36   18   19 1
    37   18   20 1
    38   18   40 1
    39   20   21 2
    40   20   22 1
    41   22   23 2
    42   22   28 1
    43   23   24 1
    44   23   27 1
    45   24   25 1
    46   24   56 1
    47   25   26 2
    48   28   29 2
    49   28   30 am
    50   30   31 1
    51   30   57 1
    52   31   32 1
    53   31   58 1
    54   31   59 1
    55   32   33 1
    56   32   60 1
    57   33   34 1
    58   33   36 1
    59   33   38 1
    60   34   35 1
    61   34   61 1
    62   34   62 1
    63   35   63 1
    64   36   37 1
    65   36   64 1
    66   36   65 1
    67   37   66 1
    68   38   39 1
    69   38   67 1
    70   38   68 1
    71   39   69 1
    72   40   41 1
    73   40   42 1
    74   40   77 1
    75   41   70 1
    76   41   71 1
    77   41   72 1
    78   42   73 1
    79   42   74 1
    80   42   75 1
@<TRIPOS>MOLECULE
CHEMBL553067__2
   76    79     0     0     0
SMALL
USER_CHARGES

@<TRIPOS>ATOM
      1 C1         -0.0749    2.7601    0.5637 C.3       1 <0>        -0.1404
      2 C2          0.0129    1.2734    0.3334 C.ar      1 <0>        -0.0215
      3 C3         -0.0406    0.7673   -0.9488 C.ar      1 <0>        -0.1372
      4 C4          0.0413   -0.5984   -1.1564 C.ar      1 <0>        -0.0840
      5 C5          0.1778   -1.4641   -0.0865 C.ar      1 <0>        -0.1351
      6 C6          0.2330   -0.9749    1.2054 C.ar      1 <0>        -0.0518
      7 C7          0.1547    0.4031    1.4175 C.ar      1 <0>        -0.1555
      8 C8          0.2119    0.9479    2.7892 C.2       1 <0>         0.3972
      9 C9          0.6308    0.0007    3.8947 C.3       1 <0>        -0.1785
     10 C10        -0.1064   -1.3263    3.6510 C.3       1 <0>        -0.0493
     11 H1         -1.1773   -1.1377    3.5747 H         1 <0>         0.0856
     12 C11         0.3832   -1.9426    2.3489 C.3       1 <0>         0.1788
     13 C12         1.8602   -2.3090    2.5077 C.3       1 <0>        -0.1841
     14 O1         -0.3660   -3.1259    2.0650 O.3       1 <0>        -0.5428
     15 C13         0.1616   -2.2693    4.8224 C.3       1 <0>        -0.1161
     16 C14        -0.4325   -1.6833    6.1041 C.3       1 <0>        -0.0612
     17 H2         -1.5001   -1.5144    5.9631 H         1 <0>         0.0761
     18 C15        -0.2224   -2.6696    7.2587 C.3       1 <0>         0.0536
     19 H3         -0.7307   -3.6085    7.0395 H         1 <0>         0.0563
     20 C16         1.2662   -2.9115    7.3938 C.2       1 <0>         0.4213
     21 O2          1.7077   -4.0279    7.5723 O.2       1 <0>        -0.5414
     22 C17         2.1556   -1.7494    7.3019 C.2       1 <0>        -0.4963
     23 C18         1.6701   -0.5486    6.8455 C.2       1 <0>         0.3602
     24 C19         0.2489   -0.3598    6.4412 C.3       1 <0>        -0.1210
     25 C20         0.1757    0.5531    5.2258 C.2       1 <0>         0.3932
     26 O3         -0.2267    1.6877    5.3211 O.2       1 <0>        -0.4213
     27 O4          2.5094    0.4943    6.7633 O.3       1 <0>        -0.6031
     28 C21         3.5675   -1.8697    7.6988 C.2       1 <0>         0.5928
     29 O5          4.2879   -0.8897    7.6881 O.2       1 <0>        -0.5589
     30 N1          4.0624   -3.0658    8.0743 N.am      1 <0>        -0.7250
     31 C22         5.4928   -3.2110    8.3554 C.3       1 <0>         0.2885
     32 N2          5.7268   -3.0553    9.7973 N.3       1 <0>        -0.6699
     33 C23         5.7714   -4.3618   10.4675 C.3       1 <0>         0.1278
     34 C24         6.9823   -5.1512    9.9661 C.3       1 <0>         0.0476
     35 O6          8.1747   -4.4050   10.2176 O.3       1 <0>        -0.5668
     36 C25         5.8872   -4.1558   11.9791 C.3       1 <0>         0.0955
     37 O7          5.9306   -5.4266   12.6311 O.3       1 <0>        -0.5768
     38 C26         4.4910   -5.1390   10.1553 C.3       1 <0>         0.0968
     39 O8          3.3552   -4.3512   10.5177 O.3       1 <0>        -0.5372
     40 N3         -0.7500   -2.0972    8.5045 N.3       1 <0>        -0.5231
     41 C27        -2.2063   -1.9208    8.4275 C.3       1 <0>         0.0216
     42 C28        -0.3802   -2.9235    9.6615 C.3       1 <0>         0.0272
     43 O9         -0.0647    2.1055    3.0208 O.2       1 <0>        -0.4038
     44 H4          0.9293    3.1723    0.6631 H         1 <0>         0.0747
     45 H5         -0.5783    3.2295   -0.2814 H         1 <0>         0.0622
     46 H6         -0.6391    2.9537    1.4760 H         1 <0>         0.1055
     47 H7         -0.1468    1.4364   -1.7899 H         1 <0>         0.1281
     48 H8         -0.0020   -0.9912   -2.1615 H         1 <0>         0.1267
     49 H9          0.2413   -2.5280   -0.2611 H         1 <0>         0.1259
     50 H10         2.4380   -1.4079    2.7130 H         1 <0>         0.0729
     51 H11         1.9738   -3.0098    3.3348 H         1 <0>         0.0847
     52 H12         2.2209   -2.7704    1.5884 H         1 <0>         0.0620
     53 H13        -0.0865   -3.5850    1.2611 H         1 <0>         0.3749
     54 H14        -0.2961   -3.2376    4.6204 H         1 <0>         0.0842
     55 H15         1.2370   -2.3965    4.9466 H         1 <0>         0.0884
     56 H16        -0.2915    0.1184    7.2581 H         1 <0>         0.1174
     57 H17         3.4715   -3.8304    8.1584 H         1 <0>         0.4007
     58 H18         5.8271   -4.1987    8.0377 H         1 <0>         0.0399
     59 H19         6.0493   -2.4470    7.8124 H         1 <0>         0.0805
     60 H20         6.5705   -2.5303    9.9721 H         1 <0>         0.3491
     61 H21         7.0346   -6.1066   10.4880 H         1 <0>         0.0573
     62 H22         6.8830   -5.3273    8.8950 H         1 <0>         0.0469
     63 H23         8.9839   -4.8461    9.9248 H         1 <0>         0.3789
     64 H24         6.7994   -3.6020   12.2015 H         1 <0>         0.0485
     65 H25         5.0245   -3.5934   12.3364 H         1 <0>         0.0627
     66 H26         6.0040   -5.3725   13.5938 H         1 <0>         0.3776
     67 H27         4.4527   -5.3630    9.0893 H         1 <0>         0.0398
     68 H28         4.4835   -6.0697   10.7226 H         1 <0>         0.0495
     69 H29         2.5067   -4.7825   10.3470 H         1 <0>         0.3720
     70 H30        -2.6810   -2.8873    8.2584 H         1 <0>         0.0226
     71 H31        -2.5707   -1.4956    9.3626 H         1 <0>         0.0679
     72 H32        -2.4478   -1.2485    7.6042 H         1 <0>         0.0684
     73 H33         0.7016   -2.9019    9.7924 H         1 <0>         0.0786
     74 H34        -0.8625   -2.5315   10.5569 H         1 <0>         0.0636
     75 H35        -0.7055   -3.9502    9.4935 H         1 <0>         0.0235
     76 H36         1.7113   -0.1429    3.8882 H         1 <0>         0.1465
@<TRIPOS>BOND
     1    1    2 1
     2    1   44 1
     3    1   45 1
     4    1   46 1
     5    2    7 ar
     6    2    3 ar
     7    3    4 ar
     8    3   47 1
     9    4    5 ar
    10    4   48 1
    11    5    6 ar
    12    5   49 1
    13    6   12 1
    14    6    7 ar
    15    7    8 1
    16    8    9 1
    17    8   43 2
    18    9   25 1
    19    9   10 1
    20    9   76 1
    21   10   11 1
    22   10   12 1
    23   10   15 1
    24   12   13 1
    25   12   14 1
    26   13   50 1
    27   13   51 1
    28   13   52 1
    29   14   53 1
    30   15   16 1
    31   15   54 1
    32   15   55 1
    33   16   17 1
    34   16   24 1
    35   16   18 1
    36   18   19 1
    37   18   20 1
    38   18   40 1
    39   20   21 2
    40   20   22 1
    41   22   23 2
    42   22   28 1
    43   23   24 1
    44   23   27 1
    45   24   25 1
    46   24   56 1
    47   25   26 2
    48   28   29 2
    49   28   30 am
    50   30   31 1
    51   30   57 1
    52   31   32 1
    53   31   58 1
    54   31   59 1
    55   32   33 1
    56   32   60 1
    57   33   34 1
    58   33   36 1
    59   33   38 1
    60   34   35 1
    61   34   61 1
    62   34   62 1
    63   35   63 1
    64   36   37 1
    65   36   64 1
    66   36   65 1
    67   37   66 1
    68   38   39 1
    69   38   67 1
    70   38   68 1
    71   39   69 1
    72   40   41 1
    73   40   42 1
    74   41   70 1
    75   41   71 1
    76   41   72 1
    77   42   73 1
    78   42   74 1
    79   42   75 1
@<TRIPOS>MOLECULE
CHEMBL553067__3
   77    80     0     0     0
SMALL
USER_CHARGES

@<TRIPOS>ATOM
      1 C1          1.3797    2.8095    0.1483 C.3       1 <0>        -0.1417
      2 C2          1.2375    1.3138    0.0309 C.ar      1 <0>        -0.0177
      3 C3          1.1562    0.7219   -1.2124 C.ar      1 <0>        -0.1326
      4 C4          1.0267   -0.6519   -1.3163 C.ar      1 <0>        -0.0783
      5 C5          0.9787   -1.4403   -0.1810 C.ar      1 <0>        -0.1333
      6 C6          1.0586   -0.8644    1.0733 C.ar      1 <0>        -0.0581
      7 C7          1.1935    0.5213    1.1810 C.ar      1 <0>        -0.1603
      8 C8          1.2809    1.1579    2.5109 C.2       1 <0>         0.3983
      9 C9          1.4971    0.2479    3.7025 C.3       1 <0>        -0.1785
     10 C10         0.5673   -0.9624    3.5164 C.3       1 <0>        -0.0491
     11 H1         -0.4554   -0.6151    3.3699 H         1 <0>         0.0918
     12 C11         1.0048   -1.7495    2.2901 C.3       1 <0>         0.1818
     13 C12         2.3962   -2.3289    2.5531 C.3       1 <0>        -0.1867
     14 O1          0.0880   -2.8197    2.0529 O.3       1 <0>        -0.5462
     15 C13         0.6326   -1.8393    4.7654 C.3       1 <0>        -0.1142
     16 C14         0.0880   -1.0673    5.9681 C.3       1 <0>        -0.0863
     17 H2         -0.9320   -0.7450    5.7587 H         1 <0>         0.1038
     18 C15         0.0899   -1.9791    7.2004 C.3       1 <0>        -0.0117
     19 H3         -0.5529   -2.8413    7.0228 H         1 <0>         0.1519
     20 C16         1.5137   -2.4396    7.4314 C.2       1 <0>         0.3886
     21 O2          1.7629   -3.5936    7.7132 O.2       1 <0>        -0.4917
     22 C17         2.5808   -1.4423    7.3033 C.2       1 <0>        -0.4966
     23 C18         2.3130   -0.2205    6.7363 C.2       1 <0>         0.3362
     24 C19         0.9582    0.1557    6.2445 C.3       1 <0>        -0.1543
     25 C20         1.0821    0.9691    4.9642 C.2       1 <0>         0.3958
     26 O3          0.8632    2.1566    4.9559 O.2       1 <0>        -0.3995
     27 O4          3.3113    0.6682    6.6237 O.3       1 <0>        -0.5509
     28 C21         3.9377   -1.7502    7.7823 C.2       1 <0>         0.5936
     29 O5          4.7971   -0.8895    7.7694 O.2       1 <0>        -0.5444
     30 N1          4.2282   -2.9859    8.2354 N.am      1 <0>        -0.7219
     31 C22         5.5464   -3.2639    8.8109 C.3       1 <0>         0.2829
     32 N2          5.4823   -3.1244   10.2718 N.3       1 <0>        -0.6727
     33 C23         5.2583   -4.4257   10.9156 C.3       1 <0>         0.1270
     34 C24         4.0009   -5.0735   10.3324 C.3       1 <0>         0.0984
     35 O6          2.8974   -4.1752   10.4641 O.3       1 <0>        -0.5413
     36 C25         6.4637   -5.3337   10.6633 C.3       1 <0>         0.0466
     37 O7          7.6404   -4.7220   11.1955 O.3       1 <0>        -0.5673
     38 C26         5.0771   -4.2252   12.4215 C.3       1 <0>         0.0962
     39 O8          4.8593   -5.4911   13.0478 O.3       1 <0>        -0.5762
     40 N3         -0.3898   -1.2338    8.3718 N.4       1 <0>        -0.3764
     41 C27        -1.7567   -0.7569    8.1227 C.3       1 <0>        -0.0542
     42 C28        -0.3850   -2.1140    9.5479 C.3       1 <0>        -0.0471
     43 O9          1.1841    2.3593    2.6434 O.2       1 <0>        -0.4009
     44 H4          2.4315    3.0656    0.2754 H         1 <0>         0.0766
     45 H5          0.9971    3.2829   -0.7559 H         1 <0>         0.0660
     46 H6          0.8133    3.1617    1.0104 H         1 <0>         0.1038
     47 H7          1.1931    1.3302   -2.1041 H         1 <0>         0.1319
     48 H8          0.9622   -1.1120   -2.2913 H         1 <0>         0.1306
     49 H9          0.8781   -2.5115   -0.2748 H         1 <0>         0.1274
     50 H10         3.1021   -1.5159    2.7232 H         1 <0>         0.0733
     51 H11         2.3621   -2.9707    3.4335 H         1 <0>         0.0814
     52 H12         2.7158   -2.9129    1.6899 H         1 <0>         0.0679
     53 H13         0.3230   -3.3794    1.3002 H         1 <0>         0.3819
     54 H14         0.0343   -2.7370    4.6097 H         1 <0>         0.0983
     55 H15         1.6677   -2.1231    4.9554 H         1 <0>         0.0978
     56 H16         0.4684    0.7763    6.9949 H         1 <0>         0.1047
     57 H17         3.5644   -3.6911    8.1804 H         1 <0>         0.4001
     58 H18         5.8472   -4.2801    8.5558 H         1 <0>         0.0473
     59 H19         6.2740   -2.5582    8.4101 H         1 <0>         0.0874
     60 H20         6.3157   -2.6825   10.6298 H         1 <0>         0.3545
     61 H21         4.1632   -5.2975    9.2781 H         1 <0>         0.0399
     62 H22         3.7845   -5.9963   10.8708 H         1 <0>         0.0546
     63 H23         2.0648   -4.5211   10.1145 H         1 <0>         0.3671
     64 H24         6.3022   -6.2955   11.1501 H         1 <0>         0.0598
     65 H25         6.5862   -5.4852    9.5909 H         1 <0>         0.0468
     66 H26         8.4453   -5.2434   11.0711 H         1 <0>         0.3835
     67 H27         5.9730   -3.7637   12.8370 H         1 <0>         0.0508
     68 H28         4.2184   -3.5784   12.6013 H         1 <0>         0.0595
     69 H29         4.7360   -5.4401   14.0055 H         1 <0>         0.3811
     70 H30        -2.4115   -1.6092    7.9413 H         1 <0>         0.1238
     71 H31        -2.1126   -0.2038    8.9920 H         1 <0>         0.1250
     72 H32        -1.7603   -0.1037    7.2501 H         1 <0>         0.1217
     73 H33         0.6292   -2.4679    9.7327 H         1 <0>         0.1304
     74 H34        -0.7409   -1.5610   10.4171 H         1 <0>         0.1221
     75 H35        -1.0398   -2.9664    9.3665 H         1 <0>         0.1211
     76 H36         2.5399   -0.0631    3.7638 H         1 <0>         0.1506
     77 H37         0.2163   -0.4448    8.5398 H         1 <0>         0.4283
@<TRIPOS>BOND
     1    1    2 1
     2    1   44 1
     3    1   45 1
     4    1   46 1
     5    2    7 ar
     6    2    3 ar
     7    3    4 ar
     8    3   47 1
     9    4    5 ar
    10    4   48 1
    11    5    6 ar
    12    5   49 1
    13    6   12 1
    14    6    7 ar
    15    7    8 1
    16    8    9 1
    17    8   43 2
    18    9   25 1
    19    9   10 1
    20    9   76 1
    21   10   11 1
    22   10   12 1
    23   10   15 1
    24   12   13 1
    25   12   14 1
    26   13   50 1
    27   13   51 1
    28   13   52 1
    29   14   53 1
    30   15   16 1
    31   15   54 1
    32   15   55 1
    33   16   17 1
    34   16   24 1
    35   16   18 1
    36   18   19 1
    37   18   20 1
    38   18   40 1
    39   20   21 2
    40   20   22 1
    41   22   23 2
    42   22   28 1
    43   23   24 1
    44   23   27 1
    45   24   25 1
    46   24   56 1
    47   25   26 2
    48   28   29 2
    49   28   30 am
    50   30   31 1
    51   30   57 1
    52   31   32 1
    53   31   58 1
    54   31   59 1
    55   32   33 1
    56   32   60 1
    57   33   34 1
    58   33   36 1
    59   33   38 1
    60   34   35 1
    61   34   61 1
    62   34   62 1
    63   35   63 1
    64   36   37 1
    65   36   64 1
    66   36   65 1
    67   37   66 1
    68   38   39 1
    69   38   67 1
    70   38   68 1
    71   39   69 1
    72   40   41 1
    73   40   42 1
    74   40   77 1
    75   41   70 1
    76   41   71 1
    77   41   72 1
    78   42   73 1
    79   42   74 1
    80   42   75 1
@<TRIPOS>MOLECULE
CHEMBL553067__4
   76    79     0     0     0
SMALL
USER_CHARGES

@<TRIPOS>ATOM
      1 C1          0.0064    3.1996    0.2543 C.3       1 <0>        -0.1399
      2 C2          0.1659    1.7108    0.0840 C.ar      1 <0>        -0.0259
      3 C3          0.1539    1.1533   -1.1776 C.ar      1 <0>        -0.1329
      4 C4          0.3013   -0.2142   -1.3304 C.ar      1 <0>        -0.0894
      5 C5          0.4612   -1.0305   -0.2255 C.ar      1 <0>        -0.1348
      6 C6          0.4756   -0.4893    1.0466 C.ar      1 <0>        -0.0626
      7 C7          0.3323    0.8909    1.2035 C.ar      1 <0>        -0.1472
      8 C8          0.3456    1.4917    2.5534 C.2       1 <0>         0.3932
      9 C9          0.7905    0.6058    3.6986 C.3       1 <0>        -0.1753
     10 C10         0.1148   -0.7582    3.4965 C.3       1 <0>        -0.0560
     11 H1         -0.9603   -0.6141    3.3891 H         1 <0>         0.0858
     12 C11         0.6518   -1.4051    2.2294 C.3       1 <0>         0.1792
     13 C12        -0.0885   -2.7179    1.9657 C.3       1 <0>        -0.1797
     14 O1          2.0427   -1.6778    2.4111 O.3       1 <0>        -0.5403
     15 C13         0.3848   -1.6590    4.7020 C.3       1 <0>        -0.0947
     16 C14        -0.2430   -1.0260    5.9404 C.3       1 <0>        -0.0558
     17 H2         -1.3020   -0.8475    5.7540 H         1 <0>         0.0745
     18 C15        -0.0931   -1.9226    7.1702 C.3       1 <0>         0.0519
     19 H3          0.9602   -2.0209    7.4331 H         1 <0>         0.1016
     20 C16        -0.8488   -1.2497    8.3006 C.2       1 <0>         0.3840
     21 O2         -1.5071   -1.9024    9.0841 O.2       1 <0>        -0.5333
     22 C17        -0.7635    0.2082    8.4232 C.2       1 <0>        -0.5181
     23 C18        -0.1695    0.9607    7.4342 C.2       1 <0>         0.3433
     24 C19         0.4467    0.3064    6.2372 C.3       1 <0>        -0.1356
     25 C20         0.3136    1.1972    5.0080 C.2       1 <0>         0.3614
     26 O3         -0.1282    2.3194    5.0687 O.2       1 <0>        -0.3718
     27 O4         -0.1265    2.2953    7.5600 O.3       1 <0>        -0.5719
     28 C21        -1.3177    0.8739    9.6128 C.2       1 <0>         0.5945
     29 O5         -1.3550    2.0884    9.6681 O.2       1 <0>        -0.5641
     30 N1         -1.7840    0.1379   10.6410 N.am      1 <0>        -0.7233
     31 C22        -2.4304    0.7960   11.7791 C.3       1 <0>         0.2871
     32 N2         -3.8859    0.8003   11.5802 N.3       1 <0>        -0.6699
     33 C23        -4.5151   -0.3327   12.2718 C.3       1 <0>         0.1286
     34 C24        -4.3073   -0.1882   13.7807 C.3       1 <0>         0.0474
     35 O6         -4.9026    1.0310   14.2290 O.3       1 <0>        -0.5668
     36 C25        -6.0135   -0.3504   11.9627 C.3       1 <0>         0.0963
     37 O7         -6.6256   -1.4525   12.6355 O.3       1 <0>        -0.5763
     38 C26        -3.8800   -1.6394   11.7922 C.3       1 <0>         0.1004
     39 O8         -3.9714   -1.7190   10.3684 O.3       1 <0>        -0.5304
     40 N3         -0.6677   -3.2470    6.8986 N.3       1 <0>        -0.5208
     41 C27        -0.4310   -4.1640    8.0215 C.3       1 <0>         0.0099
     42 C28        -2.1013   -3.1464    6.5943 C.3       1 <0>         0.0106
     43 O9          0.0152    2.6439    2.7363 O.2       1 <0>        -0.4028
     44 H4          0.9885    3.6604    0.3609 H         1 <0>         0.0738
     45 H5         -0.4962    3.6135   -0.6198 H         1 <0>         0.0621
     46 H6         -0.5884    3.4018    1.1451 H         1 <0>         0.1055
     47 H7          0.0292    1.7836   -2.0457 H         1 <0>         0.1275
     48 H8          0.2911   -0.6472   -2.3197 H         1 <0>         0.1259
     49 H9          0.5750   -2.0964   -0.3571 H         1 <0>         0.1302
     50 H10         0.3191   -3.1919    1.0728 H         1 <0>         0.0629
     51 H11         0.0367   -3.3835    2.8197 H         1 <0>         0.0823
     52 H12        -1.1488   -2.5135    1.8167 H         1 <0>         0.0691
     53 H13         2.4622   -2.1051    1.6518 H         1 <0>         0.3744
     54 H14        -0.0563   -2.6409    4.5303 H         1 <0>         0.0915
     55 H15         1.4601   -1.7602    4.8488 H         1 <0>         0.0806
     56 H16         1.5047    0.1211    6.4225 H         1 <0>         0.1117
     57 H17        -1.6915   -0.8276   10.6276 H         1 <0>         0.3987
     58 H18        -2.1905    0.2562   12.6952 H         1 <0>         0.0392
     59 H19        -2.0713    1.8222   11.8574 H         1 <0>         0.0819
     60 H20        -4.2891    1.6756   11.8792 H         1 <0>         0.3476
     61 H21        -4.7726   -1.0299   14.2937 H         1 <0>         0.0563
     62 H22        -3.2398   -0.1737   14.0007 H         1 <0>         0.0467
     63 H23        -4.8091    1.1886   15.1785 H         1 <0>         0.3783
     64 H24        -6.4660    0.5806   12.3044 H         1 <0>         0.0478
     65 H25        -6.1616   -0.4532   10.8878 H         1 <0>         0.0620
     66 H26        -7.5779   -1.5258   12.4844 H         1 <0>         0.3770
     67 H27        -2.8321   -1.6651   12.0910 H         1 <0>         0.0344
     68 H28        -4.4058   -2.4839   12.2378 H         1 <0>         0.0449
     69 H29        -3.5877   -2.5238    9.9940 H         1 <0>         0.3743
     70 H30        -0.8923   -3.7610    8.9231 H         1 <0>         0.0653
     71 H31        -0.8666   -5.1369    7.7942 H         1 <0>         0.0540
     72 H32         0.6417   -4.2743    8.1805 H         1 <0>         0.0541
     73 H33        -2.2430   -2.5171    5.7156 H         1 <0>         0.0600
     74 H34        -2.5016   -4.1410    6.3972 H         1 <0>         0.0569
     75 H35        -2.6232   -2.7066    7.4442 H         1 <0>         0.0518
     76 H36         1.8762    0.5091    3.7015 H         1 <0>         0.1419
@<TRIPOS>BOND
     1    1    2 1
     2    1   44 1
     3    1   45 1
     4    1   46 1
     5    2    7 ar
     6    2    3 ar
     7    3    4 ar
     8    3   47 1
     9    4    5 ar
    10    4   48 1
    11    5    6 ar
    12    5   49 1
    13    6   12 1
    14    6    7 ar
    15    7    8 1
    16    8    9 1
    17    8   43 2
    18    9   25 1
    19    9   10 1
    20    9   76 1
    21   10   11 1
    22   10   12 1
    23   10   15 1
    24   12   13 1
    25   12   14 1
    26   13   50 1
    27   13   51 1
    28   13   52 1
    29   14   53 1
    30   15   16 1
    31   15   54 1
    32   15   55 1
    33   16   17 1
    34   16   24 1
    35   16   18 1
    36   18   19 1
    37   18   20 1
    38   18   40 1
    39   20   21 2
    40   20   22 1
    41   22   23 2
    42   22   28 1
    43   23   24 1
    44   23   27 1
    45   24   25 1
    46   24   56 1
    47   25   26 2
    48   28   29 2
    49   28   30 am
    50   30   31 1
    51   30   57 1
    52   31   32 1
    53   31   58 1
    54   31   59 1
    55   32   33 1
    56   32   60 1
    57   33   34 1
    58   33   36 1
    59   33   38 1
    60   34   35 1
    61   34   61 1
    62   34   62 1
    63   35   63 1
    64   36   37 1
    65   36   64 1
    66   36   65 1
    67   37   66 1
    68   38   39 1
    69   38   67 1
    70   38   68 1
    71   39   69 1
    72   40   41 1
    73   40   42 1
    74   41   70 1
    75   41   71 1
    76   41   72 1
    77   42   73 1
    78   42   74 1
    79   42   75 1
@<TRIPOS>MOLECULE
CHEMBL553067__5
   77    80     0     0     0
SMALL
USER_CHARGES

@<TRIPOS>ATOM
      1 C1          0.5363   -0.4364   -0.7402 C.3       1 <0>        -0.1436
      2 C2          0.7148   -1.8831   -0.3578 C.ar      1 <0>        -0.0205
      3 C3          0.7927   -2.8528   -1.3358 C.ar      1 <0>        -0.1266
      4 C4          0.9572   -4.1803   -0.9812 C.ar      1 <0>        -0.0843
      5 C5          1.0446   -4.5455    0.3500 C.ar      1 <0>        -0.1337
      6 C6          0.9683   -3.5872    1.3435 C.ar      1 <0>        -0.0716
      7 C7          0.8075   -2.2463    0.9885 C.ar      1 <0>        -0.1501
      8 C8          0.7246   -1.2047    2.0333 C.2       1 <0>         0.3926
      9 C9          1.0938   -1.6121    3.4447 C.3       1 <0>        -0.1750
     10 C10         0.4406   -2.9780    3.7004 C.3       1 <0>        -0.0509
     11 H1         -0.6252   -2.9132    3.4815 H         1 <0>         0.0947
     12 C11         1.0671   -4.0171    2.7837 C.3       1 <0>         0.1800
     13 C12         0.3534   -5.3589    2.9598 C.3       1 <0>        -0.1814
     14 O1          2.4435   -4.1664    3.1376 O.3       1 <0>        -0.5459
     15 C13         0.6313   -3.3831    5.1623 C.3       1 <0>        -0.1206
     16 C14        -0.0837   -2.3698    6.0515 C.3       1 <0>        -0.0876
     17 H2         -1.1282   -2.3004    5.7477 H         1 <0>         0.1021
     18 C15        -0.0145   -2.7659    7.5270 C.3       1 <0>        -0.0106
     19 H3          1.0185   -2.7333    7.8732 H         1 <0>         0.1557
     20 C16        -0.8499   -1.7575    8.2933 C.2       1 <0>         0.3879
     21 O2         -1.5574   -2.1081    9.2151 O.2       1 <0>        -0.5322
     22 C17        -0.7807   -0.3495    7.8929 C.2       1 <0>        -0.4832
     23 C18        -0.1236    0.0193    6.7399 C.2       1 <0>         0.3403
     24 C19         0.5771   -0.9994    5.8961 C.3       1 <0>        -0.1317
     25 C20         0.5246   -0.6081    4.4243 C.2       1 <0>         0.3572
     26 O3          0.0740    0.4489    4.0529 O.2       1 <0>        -0.3520
     27 O4         -0.0962    1.3122    6.3838 O.3       1 <0>        -0.5252
     28 C21        -1.4190    0.6791    8.7295 C.2       1 <0>         0.5917
     29 O5         -1.4587    1.8338    8.3494 O.2       1 <0>        -0.5428
     30 N1         -1.9598    0.3416    9.9171 N.am      1 <0>        -0.7213
     31 C22        -2.4991    1.3805   10.7980 C.3       1 <0>         0.2857
     32 N2         -3.9449    1.5110   10.5733 N.3       1 <0>        -0.6708
     33 C23        -4.7034    0.7239   11.5547 C.3       1 <0>         0.1270
     34 C24        -4.2315   -0.7310   11.5160 C.3       1 <0>         0.0986
     35 O6         -4.3367   -1.2305   10.1813 O.3       1 <0>        -0.5340
     36 C25        -4.4746    1.2972   12.9547 C.3       1 <0>         0.0474
     37 O7         -4.9175    2.6554   12.9915 O.3       1 <0>        -0.5665
     38 C26        -6.1941    0.7858   11.2156 C.3       1 <0>         0.0952
     39 O8         -6.9319    0.0202   12.1703 O.3       1 <0>        -0.5771
     40 N3         -0.5623   -4.1165    7.7102 N.4       1 <0>        -0.3681
     41 C27        -0.3784   -4.5344    9.1065 C.3       1 <0>        -0.0572
     42 C28        -1.9949   -4.1122    7.3851 C.3       1 <0>        -0.0659
     43 O9          0.3765   -0.0729    1.7721 O.2       1 <0>        -0.3951
     44 H4          1.5073    0.0588   -0.7516 H         1 <0>         0.0768
     45 H5          0.0856   -0.3753   -1.7307 H         1 <0>         0.0666
     46 H6         -0.1130    0.0537   -0.0147 H         1 <0>         0.1055
     47 H7          0.7251   -2.5763   -2.3775 H         1 <0>         0.1320
     48 H8          1.0175   -4.9369   -1.7495 H         1 <0>         0.1300
     49 H9          1.1726   -5.5847    0.6146 H         1 <0>         0.1305
     50 H10         0.8241   -6.1072    2.3221 H         1 <0>         0.0717
     51 H11         0.4227   -5.6735    4.0011 H         1 <0>         0.0699
     52 H12        -0.6950   -5.2521    2.6815 H         1 <0>         0.0733
     53 H13         2.9166   -4.8233    2.6086 H         1 <0>         0.3831
     54 H14         0.2081   -4.3744    5.3248 H         1 <0>         0.0713
     55 H15         1.6944   -3.3939    5.4026 H         1 <0>         0.1028
     56 H16         1.6207   -1.0755    6.2013 H         1 <0>         0.1251
     57 H17        -1.9919   -0.5891   10.1884 H         1 <0>         0.3988
     58 H18        -2.3162    1.1067   11.8371 H         1 <0>         0.0454
     59 H19        -2.0105    2.3304   10.5812 H         1 <0>         0.0837
     60 H20        -4.2275    2.4795   10.5903 H         1 <0>         0.3539
     61 H21        -3.1933   -0.7850   11.8434 H         1 <0>         0.0369
     62 H22        -4.8534   -1.3324   12.1791 H         1 <0>         0.0518
     63 H23        -4.0536   -2.1498   10.0819 H         1 <0>         0.3663
     64 H24        -5.0360    0.7121   13.6831 H         1 <0>         0.0586
     65 H25        -3.4124    1.2548   13.1955 H         1 <0>         0.0457
     66 H26        -4.8025    3.0834   13.8509 H         1 <0>         0.3825
     67 H27        -6.5303    1.8223   11.2432 H         1 <0>         0.0510
     68 H28        -6.3571    0.3774   10.2183 H         1 <0>         0.0610
     69 H29        -7.8866    0.0147   12.0168 H         1 <0>         0.3808
     70 H30        -1.0090   -3.9253    9.7541 H         1 <0>         0.1501
     71 H31        -0.6557   -5.5833    9.2114 H         1 <0>         0.1130
     72 H32         0.6661   -4.4046    9.3900 H         1 <0>         0.1131
     73 H33        -2.1266   -3.8875    6.3266 H         1 <0>         0.1142
     74 H34        -2.4202   -5.0915    7.6043 H         1 <0>         0.1181
     75 H35        -2.5009   -3.3542    7.9830 H         1 <0>         0.1471
     76 H36         2.1772   -1.6695    3.5500 H         1 <0>         0.1478
     77 H37        -0.0810   -4.7603    7.1003 H         1 <0>         0.4114
@<TRIPOS>BOND
     1    1    2 1
     2    1   44 1
     3    1   45 1
     4    1   46 1
     5    2    7 ar
     6    2    3 ar
     7    3    4 ar
     8    3   47 1
     9    4    5 ar
    10    4   48 1
    11    5    6 ar
    12    5   49 1
    13    6   12 1
    14    6    7 ar
    15    7    8 1
    16    8    9 1
    17    8   43 2
    18    9   25 1
    19    9   10 1
    20    9   76 1
    21   10   11 1
    22   10   12 1
    23   10   15 1
    24   12   13 1
    25   12   14 1
    26   13   50 1
    27   13   51 1
    28   13   52 1
    29   14   53 1
    30   15   16 1
    31   15   54 1
    32   15   55 1
    33   16   17 1
    34   16   24 1
    35   16   18 1
    36   18   19 1
    37   18   20 1
    38   18   40 1
    39   20   21 2
    40   20   22 1
    41   22   23 2
    42   22   28 1
    43   23   24 1
    44   23   27 1
    45   24   25 1
    46   24   56 1
    47   25   26 2
    48   28   29 2
    49   28   30 am
    50   30   31 1
    51   30   57 1
    52   31   32 1
    53   31   58 1
    54   31   59 1
    55   32   33 1
    56   32   60 1
    57   33   34 1
    58   33   36 1
    59   33   38 1
    60   34   35 1
    61   34   61 1
    62   34   62 1
    63   35   63 1
    64   36   37 1
    65   36   64 1
    66   36   65 1
    67   37   66 1
    68   38   39 1
    69   38   67 1
    70   38   68 1
    71   39   69 1
    72   40   41 1
    73   40   42 1
    74   40   77 1
    75   41   70 1
    76   41   71 1
    77   41   72 1
    78   42   73 1
    79   42   74 1
    80   42   75 1
@<TRIPOS>MOLECULE
CHEMBL553067__6
   76    79     0     0     0
SMALL
USER_CHARGES

@<TRIPOS>ATOM
      1 C1         -0.0749    2.7601    0.5637 C.3       1 <0>        -0.1403
      2 C2          0.0129    1.2734    0.3334 C.ar      1 <0>        -0.0256
      3 C3         -0.0406    0.7673   -0.9488 C.ar      1 <0>        -0.1333
      4 C4          0.0413   -0.5984   -1.1564 C.ar      1 <0>        -0.0891
      5 C5          0.1778   -1.4641   -0.0865 C.ar      1 <0>        -0.1346
      6 C6          0.2330   -0.9749    1.2054 C.ar      1 <0>        -0.0605
      7 C7          0.1547    0.4031    1.4175 C.ar      1 <0>        -0.1466
      8 C8          0.2119    0.9479    2.7892 C.2       1 <0>         0.3968
      9 C9          0.6308    0.0007    3.8947 C.3       1 <0>        -0.1719
     10 C10        -0.1064   -1.3263    3.6510 C.3       1 <0>        -0.0506
     11 H1         -1.1773   -1.1377    3.5747 H         1 <0>         0.0862
     12 C11         0.3832   -1.9426    2.3489 C.3       1 <0>         0.1762
     13 C12        -0.4189   -3.2096    2.0450 C.3       1 <0>        -0.1793
     14 O1          1.7627   -2.2848    2.4972 O.3       1 <0>        -0.5335
     15 C13         0.1616   -2.2693    4.8224 C.3       1 <0>        -0.1143
     16 C14        -0.4325   -1.6833    6.1041 C.3       1 <0>        -0.0620
     17 H2         -1.5001   -1.5144    5.9631 H         1 <0>         0.0741
     18 C15        -0.2224   -2.6696    7.2587 C.3       1 <0>         0.0539
     19 H3         -0.7307   -3.6085    7.0395 H         1 <0>         0.0547
     20 C16         1.2662   -2.9115    7.3938 C.2       1 <0>         0.4216
     21 O2          1.7077   -4.0279    7.5723 O.2       1 <0>        -0.5428
     22 C17         2.1556   -1.7494    7.3019 C.2       1 <0>        -0.4939
     23 C18         1.6701   -0.5486    6.8455 C.2       1 <0>         0.3617
     24 C19         0.2489   -0.3598    6.4412 C.3       1 <0>        -0.1203
     25 C20         0.1757    0.5531    5.2258 C.2       1 <0>         0.3905
     26 O3         -0.2267    1.6877    5.3211 O.2       1 <0>        -0.4249
     27 O4          2.5094    0.4943    6.7633 O.3       1 <0>        -0.6034
     28 C21         3.5675   -1.8697    7.6988 C.2       1 <0>         0.5935
     29 O5          4.2879   -0.8897    7.6881 O.2       1 <0>        -0.5592
     30 N1          4.0624   -3.0658    8.0743 N.am      1 <0>        -0.7247
     31 C22         5.4928   -3.2110    8.3554 C.3       1 <0>         0.2887
     32 N2          5.7268   -3.0553    9.7973 N.3       1 <0>        -0.6700
     33 C23         5.7714   -4.3618   10.4675 C.3       1 <0>         0.1278
     34 C24         6.9823   -5.1512    9.9661 C.3       1 <0>         0.0475
     35 O6          8.1747   -4.4050   10.2176 O.3       1 <0>        -0.5668
     36 C25         5.8872   -4.1558   11.9791 C.3       1 <0>         0.0956
     37 O7          5.9306   -5.4266   12.6311 O.3       1 <0>        -0.5768
     38 C26         4.4910   -5.1390   10.1553 C.3       1 <0>         0.0968
     39 O8          3.3552   -4.3512   10.5177 O.3       1 <0>        -0.5371
     40 N3         -0.7500   -2.0972    8.5045 N.3       1 <0>        -0.5231
     41 C27        -2.2063   -1.9208    8.4275 C.3       1 <0>         0.0219
     42 C28        -0.3802   -2.9235    9.6615 C.3       1 <0>         0.0273
     43 O9         -0.0647    2.1055    3.0208 O.2       1 <0>        -0.4062
     44 H4          0.9293    3.1723    0.6631 H         1 <0>         0.0745
     45 H5         -0.5783    3.2295   -0.2814 H         1 <0>         0.0617
     46 H6         -0.6391    2.9537    1.4760 H         1 <0>         0.1056
     47 H7         -0.1468    1.4364   -1.7899 H         1 <0>         0.1276
     48 H8         -0.0020   -0.9912   -2.1615 H         1 <0>         0.1260
     49 H9          0.2413   -2.5280   -0.2611 H         1 <0>         0.1302
     50 H10        -0.0445   -3.6655    1.1285 H         1 <0>         0.0648
     51 H11        -0.3131   -3.9134    2.8705 H         1 <0>         0.0784
     52 H12        -1.4707   -2.9524    1.9194 H         1 <0>         0.0689
     53 H13         2.1509   -2.7009    1.7154 H         1 <0>         0.3741
     54 H14        -0.2961   -3.2376    4.6204 H         1 <0>         0.0741
     55 H15         1.2370   -2.3965    4.9466 H         1 <0>         0.0982
     56 H16        -0.2915    0.1184    7.2581 H         1 <0>         0.1157
     57 H17         3.4715   -3.8304    8.1584 H         1 <0>         0.4004
     58 H18         5.8271   -4.1987    8.0377 H         1 <0>         0.0397
     59 H19         6.0493   -2.4470    7.8124 H         1 <0>         0.0805
     60 H20         6.5705   -2.5303    9.9721 H         1 <0>         0.3489
     61 H21         7.0346   -6.1066   10.4880 H         1 <0>         0.0570
     62 H22         6.8830   -5.3273    8.8950 H         1 <0>         0.0470
     63 H23         8.9839   -4.8461    9.9248 H         1 <0>         0.3788
     64 H24         6.7994   -3.6020   12.2015 H         1 <0>         0.0484
     65 H25         5.0245   -3.5934   12.3364 H         1 <0>         0.0626
     66 H26         6.0040   -5.3725   13.5938 H         1 <0>         0.3774
     67 H27         4.4527   -5.3630    9.0893 H         1 <0>         0.0400
     68 H28         4.4835   -6.0697   10.7226 H         1 <0>         0.0492
     69 H29         2.5067   -4.7825   10.3470 H         1 <0>         0.3718
     70 H30        -2.6810   -2.8873    8.2584 H         1 <0>         0.0219
     71 H31        -2.5707   -1.4956    9.3626 H         1 <0>         0.0678
     72 H32        -2.4478   -1.2485    7.6042 H         1 <0>         0.0681
     73 H33         0.7016   -2.9019    9.7924 H         1 <0>         0.0789
     74 H34        -0.8625   -2.5315   10.5569 H         1 <0>         0.0634
     75 H35        -0.7055   -3.9502    9.4935 H         1 <0>         0.0232
     76 H36         1.7113   -0.1429    3.8882 H         1 <0>         0.1512
@<TRIPOS>BOND
     1    1    2 1
     2    1   44 1
     3    1   45 1
     4    1   46 1
     5    2    7 ar
     6    2    3 ar
     7    3    4 ar
     8    3   47 1
     9    4    5 ar
    10    4   48 1
    11    5    6 ar
    12    5   49 1
    13    6   12 1
    14    6    7 ar
    15    7    8 1
    16    8    9 1
    17    8   43 2
    18    9   25 1
    19    9   10 1
    20    9   76 1
    21   10   11 1
    22   10   12 1
    23   10   15 1
    24   12   13 1
    25   12   14 1
    26   13   50 1
    27   13   51 1
    28   13   52 1
    29   14   53 1
    30   15   16 1
    31   15   54 1
    32   15   55 1
    33   16   17 1
    34   16   24 1
    35   16   18 1
    36   18   19 1
    37   18   20 1
    38   18   40 1
    39   20   21 2
    40   20   22 1
    41   22   23 2
    42   22   28 1
    43   23   24 1
    44   23   27 1
    45   24   25 1
    46   24   56 1
    47   25   26 2
    48   28   29 2
    49   28   30 am
    50   30   31 1
    51   30   57 1
    52   31   32 1
    53   31   58 1
    54   31   59 1
    55   32   33 1
    56   32   60 1
    57   33   34 1
    58   33   36 1
    59   33   38 1
    60   34   35 1
    61   34   61 1
    62   34   62 1
    63   35   63 1
    64   36   37 1
    65   36   64 1
    66   36   65 1
    67   37   66 1
    68   38   39 1
    69   38   67 1
    70   38   68 1
    71   39   69 1
    72   40   41 1
    73   40   42 1
    74   41   70 1
    75   41   71 1
    76   41   72 1
    77   42   73 1
    78   42   74 1
    79   42   75 1
@<TRIPOS>MOLECULE
CHEMBL553067__7
   77    80     0     0     0
SMALL
USER_CHARGES

@<TRIPOS>ATOM
      1 C1          1.3797    2.8095    0.1483 C.3       1 <0>        -0.1417
      2 C2          1.2375    1.3138    0.0309 C.ar      1 <0>        -0.0216
      3 C3          1.1562    0.7219   -1.2124 C.ar      1 <0>        -0.1289
      4 C4          1.0267   -0.6519   -1.3163 C.ar      1 <0>        -0.0833
      5 C5          0.9787   -1.4403   -0.1810 C.ar      1 <0>        -0.1331
      6 C6          1.0586   -0.8644    1.0733 C.ar      1 <0>        -0.0665
      7 C7          1.1935    0.5213    1.1810 C.ar      1 <0>        -0.1517
      8 C8          1.2809    1.1579    2.5109 C.2       1 <0>         0.3979
      9 C9          1.4971    0.2479    3.7025 C.3       1 <0>        -0.1715
     10 C10         0.5673   -0.9624    3.5164 C.3       1 <0>        -0.0502
     11 H1         -0.4554   -0.6151    3.3699 H         1 <0>         0.0921
     12 C11         1.0048   -1.7495    2.2901 C.3       1 <0>         0.1788
     13 C12         0.0232   -2.8954    2.0362 C.3       1 <0>        -0.1812
     14 O1          2.3044   -2.2907    2.5357 O.3       1 <0>        -0.5391
     15 C13         0.6326   -1.8393    4.7654 C.3       1 <0>        -0.1125
     16 C14         0.0880   -1.0673    5.9681 C.3       1 <0>        -0.0871
     17 H2         -0.9320   -0.7450    5.7587 H         1 <0>         0.1018
     18 C15         0.0899   -1.9791    7.2004 C.3       1 <0>        -0.0117
     19 H3         -0.5529   -2.8413    7.0228 H         1 <0>         0.1505
     20 C16         1.5137   -2.4396    7.4314 C.2       1 <0>         0.3886
     21 O2          1.7629   -3.5936    7.7132 O.2       1 <0>        -0.4933
     22 C17         2.5808   -1.4423    7.3033 C.2       1 <0>        -0.4937
     23 C18         2.3130   -0.2205    6.7363 C.2       1 <0>         0.3377
     24 C19         0.9582    0.1557    6.2445 C.3       1 <0>        -0.1535
     25 C20         1.0821    0.9691    4.9642 C.2       1 <0>         0.3930
     26 O3          0.8632    2.1566    4.9559 O.2       1 <0>        -0.4032
     27 O4          3.3113    0.6682    6.6237 O.3       1 <0>        -0.5510
     28 C21         3.9377   -1.7502    7.7823 C.2       1 <0>         0.5943
     29 O5          4.7971   -0.8895    7.7694 O.2       1 <0>        -0.5448
     30 N1          4.2282   -2.9859    8.2354 N.am      1 <0>        -0.7216
     31 C22         5.5464   -3.2639    8.8109 C.3       1 <0>         0.2831
     32 N2          5.4823   -3.1244   10.2718 N.3       1 <0>        -0.6728
     33 C23         5.2583   -4.4257   10.9156 C.3       1 <0>         0.1270
     34 C24         4.0009   -5.0735   10.3324 C.3       1 <0>         0.0985
     35 O6          2.8974   -4.1752   10.4641 O.3       1 <0>        -0.5411
     36 C25         6.4637   -5.3337   10.6633 C.3       1 <0>         0.0466
     37 O7          7.6404   -4.7220   11.1955 O.3       1 <0>        -0.5673
     38 C26         5.0771   -4.2252   12.4215 C.3       1 <0>         0.0963
     39 O8          4.8593   -5.4911   13.0478 O.3       1 <0>        -0.5763
     40 N3         -0.3898   -1.2338    8.3718 N.4       1 <0>        -0.3766
     41 C27        -1.7567   -0.7569    8.1227 C.3       1 <0>        -0.0540
     42 C28        -0.3850   -2.1140    9.5479 C.3       1 <0>        -0.0470
     43 O9          1.1841    2.3593    2.6434 O.2       1 <0>        -0.4034
     44 H4          2.4315    3.0656    0.2754 H         1 <0>         0.0763
     45 H5          0.9971    3.2829   -0.7559 H         1 <0>         0.0655
     46 H6          0.8133    3.1617    1.0104 H         1 <0>         0.1039
     47 H7          1.1931    1.3302   -2.1041 H         1 <0>         0.1314
     48 H8          0.9622   -1.1120   -2.2913 H         1 <0>         0.1298
     49 H9          0.8781   -2.5115   -0.2748 H         1 <0>         0.1317
     50 H10         0.3570   -3.4759    1.1761 H         1 <0>         0.0701
     51 H11        -0.0190   -3.5391    2.9148 H         1 <0>         0.0756
     52 H12        -0.9677   -2.4874    1.8367 H         1 <0>         0.0711
     53 H13         2.6527   -2.8233    1.8077 H         1 <0>         0.3814
     54 H14         0.0343   -2.7370    4.6097 H         1 <0>         0.0884
     55 H15         1.6677   -2.1231    4.9554 H         1 <0>         0.1076
     56 H16         0.4684    0.7763    6.9949 H         1 <0>         0.1030
     57 H17         3.5644   -3.6911    8.1804 H         1 <0>         0.4000
     58 H18         5.8472   -4.2801    8.5558 H         1 <0>         0.0471
     59 H19         6.2740   -2.5582    8.4101 H         1 <0>         0.0873
     60 H20         6.3157   -2.6825   10.6298 H         1 <0>         0.3543
     61 H21         4.1632   -5.2975    9.2781 H         1 <0>         0.0402
     62 H22         3.7845   -5.9963   10.8708 H         1 <0>         0.0543
     63 H23         2.0648   -4.5211   10.1145 H         1 <0>         0.3669
     64 H24         6.3022   -6.2955   11.1501 H         1 <0>         0.0596
     65 H25         6.5862   -5.4852    9.5909 H         1 <0>         0.0470
     66 H26         8.4453   -5.2434   11.0711 H         1 <0>         0.3834
     67 H27         5.9730   -3.7637   12.8370 H         1 <0>         0.0508
     68 H28         4.2184   -3.5784   12.6013 H         1 <0>         0.0594
     69 H29         4.7360   -5.4401   14.0055 H         1 <0>         0.3809
     70 H30        -2.4115   -1.6092    7.9413 H         1 <0>         0.1232
     71 H31        -2.1126   -0.2038    8.9920 H         1 <0>         0.1248
     72 H32        -1.7603   -0.1037    7.2501 H         1 <0>         0.1215
     73 H33         0.6292   -2.4679    9.7327 H         1 <0>         0.1307
     74 H34        -0.7409   -1.5610   10.4171 H         1 <0>         0.1219
     75 H35        -1.0398   -2.9664    9.3665 H         1 <0>         0.1207
     76 H36         2.5399   -0.0631    3.7638 H         1 <0>         0.1552
     77 H37         0.2163   -0.4448    8.5398 H         1 <0>         0.4287
@<TRIPOS>BOND
     1    1    2 1
     2    1   44 1
     3    1   45 1
     4    1   46 1
     5    2    7 ar
     6    2    3 ar
     7    3    4 ar
     8    3   47 1
     9    4    5 ar
    10    4   48 1
    11    5    6 ar
    12    5   49 1
    13    6   12 1
    14    6    7 ar
    15    7    8 1
    16    8    9 1
    17    8   43 2
    18    9   25 1
    19    9   10 1
    20    9   76 1
    21   10   11 1
    22   10   12 1
    23   10   15 1
    24   12   13 1
    25   12   14 1
    26   13   50 1
    27   13   51 1
    28   13   52 1
    29   14   53 1
    30   15   16 1
    31   15   54 1
    32   15   55 1
    33   16   17 1
    34   16   24 1
    35   16   18 1
    36   18   19 1
    37   18   20 1
    38   18   40 1
    39   20   21 2
    40   20   22 1
    41   22   23 2
    42   22   28 1
    43   23   24 1
    44   23   27 1
    45   24   25 1
    46   24   56 1
    47   25   26 2
    48   28   29 2
    49   28   30 am
    50   30   31 1
    51   30   57 1
    52   31   32 1
    53   31   58 1
    54   31   59 1
    55   32   33 1
    56   32   60 1
    57   33   34 1
    58   33   36 1
    59   33   38 1
    60   34   35 1
    61   34   61 1
    62   34   62 1
    63   35   63 1
    64   36   37 1
    65   36   64 1
    66   36   65 1
    67   37   66 1
    68   38   39 1
    69   38   67 1
    70   38   68 1
    71   39   69 1
    72   40   41 1
    73   40   42 1
    74   40   77 1
    75   41   70 1
    76   41   71 1
    77   41   72 1
    78   42   73 1
    79   42   74 1
    80   42   75 1
@<TRIPOS>MOLECULE
CHEMBL111182
   38    40     0     0     0
SMALL
USER_CHARGES

@<TRIPOS>ATOM
      1 C1         -1.5086    0.6401    0.1148 C.3       1 <0>        -0.0956
      2 C2         -0.9777   -0.7690    0.0533 C.2       1 <0>         0.1674
      3 N1         -1.0926   -1.5882   -0.9460 N.2       1 <0>        -0.2472
      4 N2         -0.4864   -2.8139   -0.6726 N.am      1 <0>        -0.4359
      5 C3          0.0520   -2.7998    0.5637 C.2       1 <0>         0.5323
      6 O1          0.6526   -3.7062    1.1123 O.2       1 <0>        -0.4463
      7 C4         -0.2296   -1.4627    1.1129 C.2       1 <0>        -0.2475
      8 C5          0.1286   -0.9683    2.3548 C.2       1 <0>         0.1122
      9 C6         -0.0646    0.4478    2.6611 C.ar      1 <0>        -0.1364
     10 C7          0.3992    1.4323    1.7754 C.ar      1 <0>        -0.0656
     11 C8          0.2129    2.7629    2.0720 C.ar      1 <0>        -0.1339
     12 C9         -0.4305    3.1371    3.2423 C.ar      1 <0>        -0.0753
     13 C10        -0.8931    2.1808    4.1248 C.ar      1 <0>        -0.1491
     14 C11        -0.7224    0.8341    3.8441 C.ar      1 <0>         0.1453
     15 O2         -1.1816   -0.1057    4.7069 O.3       1 <0>        -0.4930
     16 C12        -0.4453   -3.8608   -1.5205 C.2       1 <0>         0.5895
     17 O3          0.0175   -4.9229   -1.1527 O.2       1 <0>        -0.4504
     18 C13        -0.9613   -3.7178   -2.8936 C.ar      1 <0>        -0.1794
     19 C14        -1.3617   -2.4651   -3.3673 C.ar      1 <0>        -0.0588
     20 C15        -1.8428   -2.3383   -4.6520 C.ar      1 <0>        -0.1476
     21 C16        -1.9323   -3.4474   -5.4778 C.ar      1 <0>        -0.0664
     22 C17        -1.5408   -4.6907   -5.0229 C.ar      1 <0>        -0.1643
     23 C18        -1.0482   -4.8364   -3.7345 C.ar      1 <0>         0.1741
     24 O4         -0.6574   -6.0563   -3.2882 O.3       1 <0>        -0.4802
     25 H1         -0.7551    1.3293   -0.2663 H         1 <0>         0.0994
     26 H2         -2.4104    0.7154   -0.4928 H         1 <0>         0.0910
     27 H3         -1.7444    0.8947    1.1481 H         1 <0>         0.0947
     28 H4          0.5508   -1.6288    3.0976 H         1 <0>         0.1533
     29 H5          0.9015    1.1463    0.8631 H         1 <0>         0.1353
     30 H6          0.5701    3.5202    1.3898 H         1 <0>         0.1357
     31 H7         -0.5707    4.1845    3.4653 H         1 <0>         0.1341
     32 H8         -1.3926    2.4828    5.0335 H         1 <0>         0.1374
     33 H9         -0.5410   -0.3652    5.3832 H         1 <0>         0.3990
     34 H10        -1.2944   -1.5980   -2.7270 H         1 <0>         0.1714
     35 H11        -2.1519   -1.3700   -5.0170 H         1 <0>         0.1332
     36 H12        -2.3110   -3.3386   -6.4834 H         1 <0>         0.1331
     37 H13        -1.6143   -5.5504   -5.6725 H         1 <0>         0.1379
     38 H14        -1.3633   -6.5657   -2.8672 H         1 <0>         0.3966
@<TRIPOS>BOND
     1    1    2 1
     2    1   25 1
     3    1   26 1
     4    1   27 1
     5    2    7 1
     6    2    3 2
     7    3    4 1
     8    4    5 am
     9    4   16 am
    10    5    6 2
    11    5    7 1
    12    7    8 2
    13    8    9 1
    14    8   28 1
    15    9   14 ar
    16    9   10 ar
    17   10   11 ar
    18   10   29 1
    19   11   12 ar
    20   11   30 1
    21   12   13 ar
    22   12   31 1
    23   13   14 ar
    24   13   32 1
    25   14   15 1
    26   15   33 1
    27   16   17 2
    28   16   18 1
    29   18   23 ar
    30   18   19 ar
    31   19   20 ar
    32   19   34 1
    33   20   21 ar
    34   20   35 1
    35   21   22 ar
    36   21   36 1
    37   22   23 ar
    38   22   37 1
    39   23   24 1
    40   24   38 1
@<TRIPOS>MOLECULE
CHEMBL130911
   41    43     0     0     0
SMALL
USER_CHARGES

@<TRIPOS>ATOM
      1 C1          0.7413    1.4228    0.7996 C.ar      1 <0>        -0.0960
      2 C2          1.6439    2.1635    0.0275 C.ar      1 <0>        -0.0655
      3 C3          2.7249    1.5203   -0.5874 C.ar      1 <0>        -0.1063
      4 C4          2.8947    0.1594   -0.4289 C.ar      1 <0>         0.0823
      5 C5          1.9910   -0.5716    0.3421 C.ar      1 <0>         0.0938
      6 C6          0.9186    0.0653    0.9523 C.ar      1 <0>        -0.1303
      7 O1          2.1604   -1.9103    0.4963 O.3       1 <0>        -0.4863
      8 O2          3.9433   -0.4688   -1.0250 O.3       1 <0>        -0.4857
      9 C7          1.4572    3.6117   -0.1376 C.2       1 <0>        -0.0239
     10 C8          0.2161    4.1178   -0.3060 C.2       1 <0>        -0.1883
     11 C9         -0.0146    5.5706   -0.2969 C.2       1 <0>         0.4368
     12 O3          0.4469    6.2718    0.5875 O.2       1 <0>        -0.4249
     13 C10        -0.8162    6.1555   -1.3829 C.2       1 <0>        -0.1906
     14 C11        -0.3825    7.2431   -2.0567 C.2       1 <0>        -0.0225
     15 C12        -1.2656    7.9082   -3.0246 C.ar      1 <0>        -0.0651
     16 C13        -0.7320    8.4723   -4.1898 C.ar      1 <0>        -0.1059
     17 C14        -1.5670    9.0955   -5.0956 C.ar      1 <0>         0.0826
     18 C15        -2.9382    9.1622   -4.8494 C.ar      1 <0>         0.0944
     19 C16        -3.4684    8.6031   -3.6942 C.ar      1 <0>        -0.1303
     20 C17        -2.6435    7.9747   -2.7874 C.ar      1 <0>        -0.0992
     21 O4         -3.7573    9.7762   -5.7420 O.3       1 <0>        -0.4863
     22 O5         -1.0522    9.6448   -6.2281 O.3       1 <0>        -0.4856
     23 C18        -2.1403    5.5056   -1.7257 C.3       1 <0>        -0.0550
     24 S1         -1.8508    3.7333   -2.0133 S.3       1 <0>        -0.2272
     25 C19        -0.9739    3.2050   -0.5156 C.3       1 <0>        -0.0525
     26 H1         -0.0912    1.9163    1.2791 H         1 <0>         0.1366
     27 H2          3.4239    2.0872   -1.1844 H         1 <0>         0.1397
     28 H3          0.2215   -0.5052    1.5482 H         1 <0>         0.1398
     29 H4          2.7040   -2.1527    1.2584 H         1 <0>         0.3913
     30 H5          4.7413   -0.5052   -0.4802 H         1 <0>         0.3902
     31 H6          2.3122    4.2714   -0.1242 H         1 <0>         0.1377
     32 H7          0.6134    7.6237   -1.8839 H         1 <0>         0.1378
     33 H8          0.3300    8.4204   -4.3792 H         1 <0>         0.1399
     34 H9         -4.5309    8.6577   -3.5081 H         1 <0>         0.1401
     35 H10        -3.0593    7.5368   -1.8920 H         1 <0>         0.1390
     36 H11        -4.1079    9.1871   -6.4241 H         1 <0>         0.3914
     37 H12        -1.0164    9.0367   -6.9791 H         1 <0>         0.3903
     38 H13        -2.8377    5.6342   -0.8979 H         1 <0>         0.1005
     39 H14        -2.5508    5.9616   -2.6266 H         1 <0>         0.1334
     40 H15        -0.6316    2.1771   -0.6356 H         1 <0>         0.1300
     41 H16        -1.6435    3.2719    0.3419 H         1 <0>         0.0997
@<TRIPOS>BOND
     1    1    6 ar
     2    1    2 ar
     3    1   26 1
     4    2    3 ar
     5    2    9 1
     6    3    4 ar
     7    3   27 1
     8    4    5 ar
     9    4    8 1
    10    5    6 ar
    11    5    7 1
    12    6   28 1
    13    7   29 1
    14    8   30 1
    15    9   10 2
    16    9   31 1
    17   10   25 1
    18   10   11 1
    19   11   12 2
    20   11   13 1
    21   13   14 2
    22   13   23 1
    23   14   15 1
    24   14   32 1
    25   15   20 ar
    26   15   16 ar
    27   16   17 ar
    28   16   33 1
    29   17   18 ar
    30   17   22 1
    31   18   19 ar
    32   18   21 1
    33   19   20 ar
    34   19   34 1
    35   20   35 1
    36   21   36 1
    37   22   37 1
    38   23   24 1
    39   23   38 1
    40   23   39 1
    41   24   25 1
    42   25   40 1
    43   25   41 1
@<TRIPOS>MOLECULE
CHEMBL213852
   41    44     0     0     0
SMALL
USER_CHARGES

@<TRIPOS>ATOM
      1 C1         -0.0173    1.4248    0.0099 C.3       1 <0>         0.0262
      2 O1          0.0021   -0.0041    0.0020 O.3       1 <0>        -0.3237
      3 C2          0.6052   -0.6066   -1.0547 C.ar      1 <0>         0.1399
      4 C3         -0.1402   -0.9267   -2.2079 C.ar      1 <0>        -0.0841
      5 C4         -1.5138   -0.6304   -2.2859 C.ar      1 <0>        -0.0529
      6 C5         -2.1829   -0.9643   -3.4295 C.ar      1 <0>        -0.1561
      7 C6         -1.5022   -1.5810   -4.4771 C.ar      1 <0>         0.1358
      8 N1         -0.2230   -1.8556   -4.4000 N.ar      1 <0>        -0.4511
      9 C7          0.4898   -1.5548   -3.3100 C.ar      1 <0>         0.1077
     10 C8          1.8677   -1.8585   -3.2468 C.ar      1 <0>         0.2286
     11 C9          2.5913   -1.5393   -2.1069 C.ar      1 <0>        -0.1743
     12 C10         1.9540   -0.9038   -1.0076 C.ar      1 <0>        -0.0587
     13 C11         3.0024   -0.7058    0.0130 C.2       1 <0>         0.1384
     14 C12         2.8361   -0.1442    1.2147 C.2       1 <0>        -0.1882
     15 N2          4.1967   -1.2101   -0.5003 N.am      1 <0>        -0.5532
     16 C13         4.0007   -1.7156   -1.7304 C.2       1 <0>         0.5740
     17 O2          4.8583   -2.2236   -2.4284 O.2       1 <0>        -0.4863
     18 C14         5.4798   -1.2038    0.2068 C.3       1 <0>         0.1647
     19 C15         5.6204   -2.4750    1.0037 C.ar      1 <0>        -0.1318
     20 C16         5.1596   -2.5283    2.3061 C.ar      1 <0>        -0.0703
     21 C17         5.2876   -3.6937    3.0377 C.ar      1 <0>        -0.1564
     22 C18         5.8776   -4.8082    2.4660 C.ar      1 <0>         0.1088
     23 C19         6.3387   -4.7536    1.1616 C.ar      1 <0>        -0.1551
     24 C20         6.2049   -3.5888    0.4301 C.ar      1 <0>        -0.0641
     25 F1          6.0036   -5.9478    3.1805 F         1 <0>        -0.1370
     26 O3          2.4808   -2.4600   -4.2958 O.3       1 <0>        -0.4641
     27 H1          1.0053    1.8021    0.0021 H         1 <0>         0.0539
     28 H2         -0.5445    1.7859   -0.8732 H         1 <0>         0.0508
     29 H3         -0.5275    1.7763    0.9067 H         1 <0>         0.1039
     30 H4         -2.0254   -0.1522   -1.4637 H         1 <0>         0.1496
     31 H5         -3.2376   -0.7508   -3.5210 H         1 <0>         0.1477
     32 H6         -2.0426   -1.8399   -5.3756 H         1 <0>         0.1694
     33 H7          1.8620    0.2141    1.5132 H         1 <0>         0.1339
     34 H8          3.6759   -0.0487    1.8870 H         1 <0>         0.1165
     35 H9          6.2927   -1.1364   -0.5162 H         1 <0>         0.1048
     36 H10         5.5198   -0.3470    0.8794 H         1 <0>         0.1008
     37 H11         4.6998   -1.6587    2.7519 H         1 <0>         0.1335
     38 H12         4.9279   -3.7350    4.0552 H         1 <0>         0.1385
     39 H13         6.7994   -5.6223    0.7147 H         1 <0>         0.1386
     40 H14         6.5604   -3.5474   -0.5889 H         1 <0>         0.1382
     41 H15         2.8488   -1.8429   -4.9429 H         1 <0>         0.4032
@<TRIPOS>BOND
     1    1    2 1
     2    1   27 1
     3    1   28 1
     4    1   29 1
     5    2    3 1
     6    3   12 ar
     7    3    4 ar
     8    4    9 ar
     9    4    5 ar
    10    5    6 ar
    11    5   30 1
    12    6    7 ar
    13    6   31 1
    14    7    8 ar
    15    7   32 1
    16    8    9 ar
    17    9   10 ar
    18   10   11 ar
    19   10   26 1
    20   11   16 1
    21   11   12 ar
    22   12   13 1
    23   13   14 2
    24   13   15 1
    25   14   33 1
    26   14   34 1
    27   15   16 am
    28   15   18 1
    29   16   17 2
    30   18   19 1
    31   18   35 1
    32   18   36 1
    33   19   24 ar
    34   19   20 ar
    35   20   21 ar
    36   20   37 1
    37   21   22 ar
    38   21   38 1
    39   22   23 ar
    40   22   25 1
    41   23   24 ar
    42   23   39 1
    43   24   40 1
    44   26   41 1
@<TRIPOS>MOLECULE
CHEMBL209488
   38    41     0     0     0
SMALL
USER_CHARGES

@<TRIPOS>ATOM
      1 C1         -0.0173    1.4248    0.0099 C.3       1 <0>         0.0332
      2 O1          0.0021   -0.0041    0.0020 O.3       1 <0>        -0.3117
      3 C2          0.6060   -0.6073   -1.0560 C.ar      1 <0>        -0.0286
      4 C3         -0.1160   -0.9138   -2.1645 C.ar      1 <0>         0.0005
      5 C4          0.4836   -1.5390   -3.2758 C.ar      1 <0>        -0.3509
      6 C5          1.8396   -1.8540   -3.2511 C.ar      1 <0>         0.3649
      7 C6          2.6052   -1.5429   -2.1079 C.ar      1 <0>         0.0142
      8 C7          1.9847   -0.9091   -1.0031 C.ar      1 <0>         0.1464
      9 N1          2.7111   -0.6096    0.0786 N.ar      1 <0>        -0.4508
     10 C8          3.9921   -0.9004    0.1048 C.ar      1 <0>         0.0799
     11 C9          4.6046   -1.5195   -0.9867 C.ar      1 <0>        -0.0059
     12 N2          3.9091   -1.8338   -2.0556 N.ar      1 <0>        -0.3714
     13 O2          2.4201   -2.4558   -4.3182 O.3       1 <0>        -0.6075
     14 C10        -0.5514   -1.7359   -4.3046 C.2       1 <0>         0.5831
     15 O3         -0.3620   -2.2512   -5.3896 O.2       1 <0>        -0.5339
     16 N3         -1.7345   -1.2660   -3.8755 N.am      1 <0>        -0.6312
     17 C11        -1.5698   -0.7204   -2.5241 C.3       1 <0>         0.1585
     18 C12        -2.9868   -1.2932   -4.6353 C.3       1 <0>         0.1808
     19 C13        -3.7227   -2.5758   -4.3450 C.ar      1 <0>        -0.1158
     20 C14        -3.4906   -3.6962   -5.1210 C.ar      1 <0>        -0.0637
     21 C15        -4.1646   -4.8731   -4.8554 C.ar      1 <0>        -0.1554
     22 C16        -5.0726   -4.9299   -3.8117 C.ar      1 <0>         0.0955
     23 C17        -5.3042   -3.8072   -3.0351 C.ar      1 <0>        -0.1588
     24 C18        -4.6252   -2.6328   -3.2993 C.ar      1 <0>        -0.0768
     25 F1         -5.7323   -6.0797   -3.5514 F         1 <0>        -0.1437
     26 H1          1.0053    1.8021    0.0021 H         1 <0>         0.0366
     27 H2         -0.5445    1.7859   -0.8732 H         1 <0>         0.0315
     28 H3         -0.5275    1.7763    0.9067 H         1 <0>         0.0788
     29 H4          4.5775   -0.6577    0.9794 H         1 <0>         0.1604
     30 H5          5.6589   -1.7505   -0.9479 H         1 <0>         0.1592
     31 H6         -2.2045   -1.2610   -1.8219 H         1 <0>         0.0853
     32 H7         -1.8198    0.3405   -2.5154 H         1 <0>         0.0815
     33 H8         -3.6065   -0.4449   -4.3447 H         1 <0>         0.0859
     34 H9         -2.7665   -1.2340   -5.7011 H         1 <0>         0.0918
     35 H10        -2.7825   -3.6515   -5.9352 H         1 <0>         0.1388
     36 H11        -3.9833   -5.7481   -5.4620 H         1 <0>         0.1341
     37 H12        -6.0125   -3.8502   -2.2210 H         1 <0>         0.1332
     38 H13        -4.8024   -1.7582   -2.6909 H         1 <0>         0.1319
@<TRIPOS>BOND
     1    1    2 1
     2    1   26 1
     3    1   27 1
     4    1   28 1
     5    2    3 1
     6    3    8 ar
     7    3    4 ar
     8    4   17 1
     9    4    5 ar
    10    5    6 ar
    11    5   14 1
    12    6    7 ar
    13    6   13 1
    14    7   12 ar
    15    7    8 ar
    16    8    9 ar
    17    9   10 ar
    18   10   11 ar
    19   10   29 1
    20   11   12 ar
    21   11   30 1
    22   14   15 2
    23   14   16 am
    24   16   17 1
    25   16   18 1
    26   17   31 1
    27   17   32 1
    28   18   19 1
    29   18   33 1
    30   18   34 1
    31   19   24 ar
    32   19   20 ar
    33   20   21 ar
    34   20   35 1
    35   21   22 ar
    36   21   36 1
    37   22   23 ar
    38   22   25 1
    39   23   24 ar
    40   23   37 1
    41   24   38 1
@<TRIPOS>MOLECULE
CHEMBL209488__1
   39    42     0     0     0
SMALL
USER_CHARGES

@<TRIPOS>ATOM
      1 C1         -0.0173    1.4248    0.0099 C.3       1 <0>         0.0366
      2 O1          0.0021   -0.0041    0.0020 O.3       1 <0>        -0.3155
      3 C2          0.6260   -0.6186    1.0418 C.ar      1 <0>         0.1423
      4 C3          1.9516   -0.9030    0.9647 C.ar      1 <0>        -0.0798
      5 C4          2.6241   -1.5392    2.0270 C.ar      1 <0>        -0.1664
      6 C5          1.9300   -1.8881    3.1825 C.ar      1 <0>         0.2319
      7 C6          0.5525   -1.6003    3.2800 C.ar      1 <0>         0.0544
      8 C7         -0.1041   -0.9550    2.2031 C.ar      1 <0>         0.0976
      9 N1         -1.4085   -0.6776    2.2972 N.ar      1 <0>        -0.4123
     10 C8         -2.0669   -1.0006    3.3874 C.ar      1 <0>         0.0939
     11 C9         -1.4181   -1.6311    4.4510 C.ar      1 <0>         0.0788
     12 N2         -0.1399   -1.9241    4.3769 N.ar      1 <0>        -0.4010
     13 O2          2.5734   -2.5006    4.2065 O.3       1 <0>        -0.4620
     14 C10         4.0353   -1.7064    1.6412 C.2       1 <0>         0.5698
     15 O3          4.8884   -2.2225    2.3375 O.2       1 <0>        -0.5027
     16 N3          4.2476   -1.2085    0.4119 N.am      1 <0>        -0.6095
     17 C11         2.9864   -0.6719   -0.1104 C.3       1 <0>         0.1504
     18 C12         5.5319   -1.2016   -0.2931 C.3       1 <0>         0.1790
     19 C13         5.6682   -2.4663   -1.1011 C.ar      1 <0>        -0.1311
     20 C14         6.2417   -3.5894   -0.5346 C.ar      1 <0>        -0.0640
     21 C15         6.3668   -4.7499   -1.2744 C.ar      1 <0>        -0.1553
     22 C16         5.9175   -4.7876   -2.5835 C.ar      1 <0>         0.1072
     23 C17         5.3433   -3.6621   -3.1499 C.ar      1 <0>        -0.1572
     24 C18         5.2145   -2.5043   -2.4064 C.ar      1 <0>        -0.0735
     25 F1          6.0398   -5.9214   -3.3079 F         1 <0>        -0.1376
     26 H1          1.0053    1.8021    0.0021 H         1 <0>         0.0469
     27 H2         -0.5445    1.7859   -0.8732 H         1 <0>         0.1017
     28 H3         -0.5275    1.7763    0.9067 H         1 <0>         0.0502
     29 H4         -3.1206   -0.7758    3.4618 H         1 <0>         0.1846
     30 H5         -1.9749   -1.8886    5.3398 H         1 <0>         0.1845
     31 H6          2.9499   -1.8906    4.8555 H         1 <0>         0.4045
     32 H7          2.7039   -1.1989   -1.0217 H         1 <0>         0.1048
     33 H8          3.0874    0.3949   -0.3099 H         1 <0>         0.1019
     34 H9          5.5767   -0.3390   -0.9580 H         1 <0>         0.0986
     35 H10         6.3439   -1.1441    0.4317 H         1 <0>         0.1012
     36 H11         6.5924   -3.5597    0.4865 H         1 <0>         0.1380
     37 H12         6.8152   -5.6271   -0.8317 H         1 <0>         0.1378
     38 H13         4.9928   -3.6902   -4.1710 H         1 <0>         0.1377
     39 H14         4.7626   -1.6277   -2.8465 H         1 <0>         0.1337
@<TRIPOS>BOND
     1    1    2 1
     2    1   26 1
     3    1   27 1
     4    1   28 1
     5    2    3 1
     6    3    8 ar
     7    3    4 ar
     8    4   17 1
     9    4    5 ar
    10    5    6 ar
    11    5   14 1
    12    6    7 ar
    13    6   13 1
    14    7   12 ar
    15    7    8 ar
    16    8    9 ar
    17    9   10 ar
    18   10   11 ar
    19   10   29 1
    20   11   12 ar
    21   11   30 1
    22   13   31 1
    23   14   15 2
    24   14   16 am
    25   16   17 1
    26   16   18 1
    27   17   32 1
    28   17   33 1
    29   18   19 1
    30   18   34 1
    31   18   35 1
    32   19   24 ar
    33   19   20 ar
    34   20   21 ar
    35   20   36 1
    36   21   22 ar
    37   21   37 1
    38   22   23 ar
    39   22   25 1
    40   23   24 ar
    41   23   38 1
    42   24   39 1
@<TRIPOS>MOLECULE
CHEMBL149674
   60    62     0     0     0
SMALL
USER_CHARGES

@<TRIPOS>ATOM
      1 C1         -0.0169    1.3952    0.0097 C.ar      1 <0>        -0.0869
      2 C2          1.1671    2.0997    0.0022 C.ar      1 <0>        -0.1318
      3 C3          2.3804    1.4252   -0.0130 C.ar      1 <0>         0.0945
      4 C4          2.4077    0.0306   -0.0212 C.ar      1 <0>         0.0767
      5 C5          1.2264   -0.6835   -0.0138 C.ar      1 <0>        -0.1019
      6 C6          0.0021   -0.0041    0.0020 C.ar      1 <0>        -0.0705
      7 C7         -1.2592   -0.7582    0.0105 C.2       1 <0>        -0.0036
      8 C8         -2.4393   -0.1007    0.0257 C.2       1 <0>        -0.1898
      9 C9         -3.6561   -0.8283    0.0339 C.2       1 <0>         0.4947
     10 O1         -3.6375   -2.0447    0.0272 O.2       1 <0>        -0.5141
     11 O2         -4.8347   -0.1717    0.0492 O.3       1 <0>        -0.3255
     12 C10        -6.0211   -0.9682    0.0567 C.3       1 <0>         0.1053
     13 H1         -5.8216   -1.9124    0.5635 H         1 <0>         0.1115
     14 C11        -6.4589   -1.2447   -1.3831 C.3       1 <0>         0.1022
     15 H2         -5.6663   -1.7783   -1.9077 H         1 <0>         0.0499
     16 C12        -7.7291   -2.0976   -1.3750 C.3       1 <0>        -0.1620
     17 C13        -8.8416   -1.3486   -0.6387 C.3       1 <0>         0.0763
     18 C14        -8.4039   -1.0720    0.8011 C.3       1 <0>        -0.1043
     19 C15        -7.1336   -0.2192    0.7930 C.3       1 <0>         0.1074
     20 O3         -7.3951    1.0186    0.1286 O.3       1 <0>        -0.2717
     21 C16        -7.8319    2.0427    0.8909 C.2       1 <0>         0.4952
     22 O4         -7.9862    1.8876    2.0875 O.2       1 <0>        -0.5306
     23 C17        -8.1111    3.2996    0.2972 C.2       1 <0>        -0.1650
     24 C18        -8.5484    4.3249    1.0604 C.2       1 <0>        -0.0251
     25 C19        -8.8378    5.6277    0.4450 C.ar      1 <0>        -0.0600
     26 C20        -8.6664    5.8068   -0.9326 C.ar      1 <0>        -0.0889
     27 C21        -8.9383    7.0289   -1.5068 C.ar      1 <0>        -0.1304
     28 C22        -9.3825    8.0853   -0.7224 C.ar      1 <0>         0.0879
     29 C23        -9.5557    7.9149    0.6508 C.ar      1 <0>         0.0764
     30 C24        -9.2910    6.6915    1.2339 C.ar      1 <0>        -0.1068
     31 O5         -9.9908    8.9523    1.4150 O.3       1 <0>        -0.4877
     32 O6         -9.6485    9.2882   -1.2942 O.3       1 <0>        -0.4885
     33 C25       -10.0927   -2.1886   -0.6307 C.2       1 <0>         0.4754
     34 O7        -10.0840   -3.2904   -0.1088 O.co2     1 <0>        -0.6940
     35 O8        -11.1137   -1.7664   -1.1463 O.co2     1 <0>        -0.6854
     36 O9         -9.1031   -0.1108   -1.3031 O.3       1 <0>        -0.5249
     37 O10        -6.7204   -0.0069   -2.0475 O.3       1 <0>        -0.5212
     38 O11         3.5987   -0.6259   -0.0370 O.3       1 <0>        -0.4862
     39 O12         3.5442    2.1252   -0.0204 O.3       1 <0>        -0.4872
     40 H3         -0.9592    1.9225    0.0260 H         1 <0>         0.1406
     41 H4          1.1513    3.1796    0.0078 H         1 <0>         0.1396
     42 H5          1.2463   -1.7633   -0.0201 H         1 <0>         0.1413
     43 H6         -1.2427   -1.8381    0.0045 H         1 <0>         0.1428
     44 H7         -2.4557    0.9791    0.0317 H         1 <0>         0.1425
     45 H8         -8.0409   -2.2946   -2.4007 H         1 <0>         0.0686
     46 H9         -7.5296   -3.0417   -0.8682 H         1 <0>         0.0822
     47 H10        -9.1964   -0.5384    1.3257 H         1 <0>         0.0787
     48 H11        -8.2044   -2.0162    1.3079 H         1 <0>         0.0931
     49 H12        -6.8218   -0.0222    1.8187 H         1 <0>         0.0828
     50 H13        -7.9741    3.4373   -0.7652 H         1 <0>         0.1422
     51 H14        -8.6854    4.1872    2.1228 H         1 <0>         0.1393
     52 H15        -8.3208    4.9871   -1.5451 H         1 <0>         0.1417
     53 H16        -8.8054    7.1661   -2.5697 H         1 <0>         0.1379
     54 H17        -9.4291    6.5571    2.2966 H         1 <0>         0.1395
     55 H18       -10.9528    9.0021    1.4994 H         1 <0>         0.3874
     56 H19       -10.5617    9.3865   -1.5966 H         1 <0>         0.3883
     57 H20        -9.3860   -0.2100   -2.2225 H         1 <0>         0.3599
     58 H21        -7.0033   -0.1061   -2.9669 H         1 <0>         0.3644
     59 H22         3.9520   -0.8208    0.8417 H         1 <0>         0.3884
     60 H23         3.8897    2.3232    0.8608 H         1 <0>         0.3898
@<TRIPOS>BOND
     1    1    6 ar
     2    1    2 ar
     3    1   40 1
     4    2    3 ar
     5    2   41 1
     6    3    4 ar
     7    3   39 1
     8    4    5 ar
     9    4   38 1
    10    5    6 ar
    11    5   42 1
    12    6    7 1
    13    7    8 2
    14    7   43 1
    15    8    9 1
    16    8   44 1
    17    9   10 2
    18    9   11 1
    19   11   12 1
    20   12   13 1
    21   12   19 1
    22   12   14 1
    23   14   15 1
    24   14   16 1
    25   14   37 1
    26   16   17 1
    27   16   45 1
    28   16   46 1
    29   17   18 1
    30   17   33 1
    31   17   36 1
    32   18   19 1
    33   18   47 1
    34   18   48 1
    35   19   20 1
    36   19   49 1
    37   20   21 1
    38   21   22 2
    39   21   23 1
    40   23   24 2
    41   23   50 1
    42   24   25 1
    43   24   51 1
    44   25   30 ar
    45   25   26 ar
    46   26   27 ar
    47   26   52 1
    48   27   28 ar
    49   27   53 1
    50   28   29 ar
    51   28   32 1
    52   29   30 ar
    53   29   31 1
    54   30   54 1
    55   31   55 1
    56   32   56 1
    57   33   34 2
    58   33   35 1
    59   36   57 1
    60   37   58 1
    61   38   59 1
    62   39   60 1
@<TRIPOS>MOLECULE
CHEMBL149674__1
   60    62     0     0     0
SMALL
USER_CHARGES

@<TRIPOS>ATOM
      1 C1         -0.0169    1.3952    0.0097 C.ar      1 <0>        -0.0876
      2 C2          1.1671    2.0997    0.0022 C.ar      1 <0>        -0.1318
      3 C3          2.3804    1.4252   -0.0130 C.ar      1 <0>         0.0940
      4 C4          2.4077    0.0306   -0.0212 C.ar      1 <0>         0.0770
      5 C5          1.2264   -0.6835   -0.0138 C.ar      1 <0>        -0.1021
      6 C6          0.0021   -0.0041    0.0020 C.ar      1 <0>        -0.0696
      7 C7         -1.2592   -0.7582    0.0105 C.2       1 <0>        -0.0048
      8 C8         -2.4393   -0.1007    0.0257 C.2       1 <0>        -0.1883
      9 C9         -3.6561   -0.8283    0.0339 C.2       1 <0>         0.4962
     10 O1         -3.6375   -2.0447    0.0272 O.2       1 <0>        -0.5128
     11 O2         -4.8347   -0.1717    0.0492 O.3       1 <0>        -0.3273
     12 C10        -6.0211   -0.9682    0.0567 C.3       1 <0>         0.1110
     13 H1         -5.8216   -1.9124    0.5635 H         1 <0>         0.1040
     14 C11        -6.4589   -1.2447   -1.3831 C.3       1 <0>         0.1013
     15 H2         -5.6663   -1.7783   -1.9077 H         1 <0>         0.0602
     16 C12        -7.7291   -2.0976   -1.3750 C.3       1 <0>        -0.1647
     17 C13        -8.8416   -1.3486   -0.6387 C.3       1 <0>         0.0747
     18 C14        -8.4039   -1.0720    0.8011 C.3       1 <0>        -0.0974
     19 C15        -7.1336   -0.2192    0.7930 C.3       1 <0>         0.1033
     20 O3         -6.7248    0.0391    2.1377 O.3       1 <0>        -0.3473
     21 C16        -7.2196    1.1479    2.7262 C.2       1 <0>         0.4946
     22 O4         -7.9778    1.8752    2.1129 O.2       1 <0>        -0.4974
     23 C17        -6.8559    1.4655    4.0592 C.2       1 <0>        -0.1852
     24 C18        -7.3513    2.5757    4.6484 C.2       1 <0>        -0.0088
     25 C19        -6.9743    2.9048    6.0301 C.ar      1 <0>        -0.0662
     26 C20        -6.0975    2.0724    6.7357 C.ar      1 <0>        -0.0890
     27 C21        -5.7459    2.3833    8.0306 C.ar      1 <0>        -0.1317
     28 C22        -6.2590    3.5211    8.6393 C.ar      1 <0>         0.0919
     29 C23        -7.1330    4.3554    7.9430 C.ar      1 <0>         0.0775
     30 C24        -7.4864    4.0546    6.6425 C.ar      1 <0>        -0.1026
     31 O5         -7.6329    5.4687    8.5432 O.3       1 <0>        -0.4859
     32 O6         -5.9089    3.8221    9.9166 O.3       1 <0>        -0.4872
     33 C25       -10.0927   -2.1886   -0.6307 C.2       1 <0>         0.4783
     34 O7        -10.0840   -3.2904   -0.1088 O.co2     1 <0>        -0.6905
     35 O8        -11.1137   -1.7664   -1.1463 O.co2     1 <0>        -0.6824
     36 O9         -9.1031   -0.1108   -1.3031 O.3       1 <0>        -0.5359
     37 O10        -6.7204   -0.0069   -2.0475 O.3       1 <0>        -0.5388
     38 O11         3.5987   -0.6259   -0.0370 O.3       1 <0>        -0.4861
     39 O12         3.5442    2.1252   -0.0204 O.3       1 <0>        -0.4871
     40 H3         -0.9592    1.9225    0.0260 H         1 <0>         0.1404
     41 H4          1.1513    3.1796    0.0078 H         1 <0>         0.1392
     42 H5          1.2463   -1.7633   -0.0201 H         1 <0>         0.1415
     43 H6         -1.2427   -1.8381    0.0045 H         1 <0>         0.1430
     44 H7         -2.4557    0.9791    0.0317 H         1 <0>         0.1420
     45 H8         -8.0409   -2.2946   -2.4007 H         1 <0>         0.0725
     46 H9         -7.5296   -3.0417   -0.8682 H         1 <0>         0.0879
     47 H10        -9.1964   -0.5384    1.3257 H         1 <0>         0.0778
     48 H11        -8.2044   -2.0162    1.3079 H         1 <0>         0.0861
     49 H12        -7.3331    0.7250    0.2862 H         1 <0>         0.1160
     50 H13        -6.1828    0.8198    4.6036 H         1 <0>         0.1408
     51 H14        -8.0244    3.2213    4.1039 H         1 <0>         0.1438
     52 H15        -5.6972    1.1867    6.2650 H         1 <0>         0.1399
     53 H16        -5.0696    1.7401    8.5742 H         1 <0>         0.1385
     54 H17        -8.1597    4.7024    6.1009 H         1 <0>         0.1418
     55 H18        -7.0914    6.2599    8.4178 H         1 <0>         0.3877
     56 H19        -5.1212    4.3785    9.9878 H         1 <0>         0.3886
     57 H20        -9.3860   -0.2100   -2.2225 H         1 <0>         0.3661
     58 H21        -7.0033   -0.1061   -2.9669 H         1 <0>         0.3733
     59 H22         3.9520   -0.8208    0.8417 H         1 <0>         0.3884
     60 H23         3.8897    2.3232    0.8608 H         1 <0>         0.3896
@<TRIPOS>BOND
     1    1    6 ar
     2    1    2 ar
     3    1   40 1
     4    2    3 ar
     5    2   41 1
     6    3    4 ar
     7    3   39 1
     8    4    5 ar
     9    4   38 1
    10    5    6 ar
    11    5   42 1
    12    6    7 1
    13    7    8 2
    14    7   43 1
    15    8    9 1
    16    8   44 1
    17    9   10 2
    18    9   11 1
    19   11   12 1
    20   12   13 1
    21   12   19 1
    22   12   14 1
    23   14   15 1
    24   14   16 1
    25   14   37 1
    26   16   17 1
    27   16   45 1
    28   16   46 1
    29   17   18 1
    30   17   33 1
    31   17   36 1
    32   18   19 1
    33   18   47 1
    34   18   48 1
    35   19   20 1
    36   19   49 1
    37   20   21 1
    38   21   22 2
    39   21   23 1
    40   23   24 2
    41   23   50 1
    42   24   25 1
    43   24   51 1
    44   25   30 ar
    45   25   26 ar
    46   26   27 ar
    47   26   52 1
    48   27   28 ar
    49   27   53 1
    50   28   29 ar
    51   28   32 1
    52   29   30 ar
    53   29   31 1
    54   30   54 1
    55   31   55 1
    56   32   56 1
    57   33   34 2
    58   33   35 1
    59   36   57 1
    60   37   58 1
    61   38   59 1
    62   39   60 1
@<TRIPOS>MOLECULE
CHEMBL217020
   42    44     0     0     0
SMALL
USER_CHARGES

@<TRIPOS>ATOM
      1 C1         -0.0167    1.3781    0.0096 C.ar      1 <0>        -0.1131
      2 C2          1.1709    2.0855    0.0021 C.ar      1 <0>        -0.1175
      3 C3          2.3773    1.4107   -0.0130 C.ar      1 <0>        -0.1002
      4 C4          2.3960    0.0285   -0.0201 C.ar      1 <0>        -0.0672
      5 C5          1.2084   -0.6789   -0.0117 C.ar      1 <0>        -0.1002
      6 C6          0.0021   -0.0041    0.0020 C.ar      1 <0>        -0.1175
      7 C7          3.7112   -0.7071   -0.0376 C.3       1 <0>        -0.0324
      8 C8          4.1644   -0.9594    1.3773 C.2       1 <0>         0.3582
      9 N1          3.4182   -0.5412    2.3563 N.2       1 <0>        -0.4662
     10 C9          3.7549   -0.7289    3.6454 C.2       1 <0>         0.0425
     11 C10         4.9340   -1.3887    3.9527 C.2       1 <0>         0.0632
     12 C11         5.7666   -1.8554    2.8366 C.2       1 <0>         0.5009
     13 N2          5.3311   -1.6182    1.5796 N.am      1 <0>        -0.6172
     14 O1          6.8157   -2.4420    3.0378 O.2       1 <0>        -0.5150
     15 O2          5.3067   -1.5961    5.2402 O.3       1 <0>        -0.4101
     16 C12         2.8731   -0.2341    4.7265 C.2       1 <0>         0.5776
     17 O3          3.1820   -0.4064    5.8893 O.2       1 <0>        -0.5093
     18 N3          1.7278    0.4073    4.4215 N.am      1 <0>        -0.7097
     19 C13         0.8551    0.8970    5.4915 C.3       1 <0>         0.1621
     20 C14        -0.3498    1.5715    4.8879 C.ar      1 <0>        -0.1192
     21 C15        -0.3147    2.9243    4.6052 C.ar      1 <0>        -0.0677
     22 C16        -1.4188    3.5439    4.0513 C.ar      1 <0>        -0.1545
     23 C17        -2.5605    2.8093    3.7794 C.ar      1 <0>         0.1081
     24 C18        -2.5945    1.4545    4.0629 C.ar      1 <0>        -0.1546
     25 C19        -1.4873    0.8360    4.6120 C.ar      1 <0>        -0.0677
     26 F1         -3.6406    3.4140    3.2383 F         1 <0>        -0.1378
     27 H1         -0.9591    1.9053    0.0259 H         1 <0>         0.1184
     28 H2          1.1563    3.1654    0.0076 H         1 <0>         0.1201
     29 H3          3.3051    1.9634   -0.0196 H         1 <0>         0.1185
     30 H4          1.2231   -1.7588   -0.0176 H         1 <0>         0.1184
     31 H5         -0.9258   -0.5567    0.0082 H         1 <0>         0.1201
     32 H6          3.5884   -1.6586   -0.5549 H         1 <0>         0.1098
     33 H7          4.4573   -0.1052   -0.5563 H         1 <0>         0.1099
     34 H8          5.8564   -1.9168    0.8207 H         1 <0>         0.4256
     35 H9          6.1464   -2.0661    5.3358 H         1 <0>         0.4061
     36 H10         1.4812    0.5448    3.4934 H         1 <0>         0.4126
     37 H11         0.5312    0.0587    6.1083 H         1 <0>         0.0806
     38 H12         1.4011    1.6116    6.1073 H         1 <0>         0.0806
     39 H13         0.5758    3.4972    4.8177 H         1 <0>         0.1345
     40 H14        -1.3913    4.6008    3.8308 H         1 <0>         0.1375
     41 H15        -3.4846    0.8805    3.8515 H         1 <0>         0.1375
     42 H16        -1.5120   -0.2217    4.8291 H         1 <0>         0.1345
@<TRIPOS>BOND
     1    1    6 ar
     2    1    2 ar
     3    1   27 1
     4    2    3 ar
     5    2   28 1
     6    3    4 ar
     7    3   29 1
     8    4    5 ar
     9    4    7 1
    10    5    6 ar
    11    5   30 1
    12    6   31 1
    13    7   32 1
    14    7   33 1
    15    7    8 1
    16    8    9 2
    17    8   13 1
    18    9   10 1
    19   10   16 1
    20   10   11 2
    21   11   15 1
    22   11   12 1
    23   12   14 2
    24   12   13 am
    25   13   34 1
    26   15   35 1
    27   16   17 2
    28   16   18 am
    29   18   19 1
    30   18   36 1
    31   19   20 1
    32   19   37 1
    33   19   38 1
    34   20   25 ar
    35   20   21 ar
    36   21   22 ar
    37   21   39 1
    38   22   23 ar
    39   22   40 1
    40   23   24 ar
    41   23   26 1
    42   24   25 ar
    43   24   41 1
    44   25   42 1
@<TRIPOS>MOLECULE
CHEMBL217020__1
   41    43     0     0     0
SMALL
USER_CHARGES

@<TRIPOS>ATOM
      1 C1         -0.0167    1.3781    0.0096 C.ar      1 <0>        -0.1291
      2 C2          1.1709    2.0855    0.0021 C.ar      1 <0>        -0.1251
      3 C3          2.3773    1.4107   -0.0130 C.ar      1 <0>        -0.1015
      4 C4          2.3960    0.0285   -0.0201 C.ar      1 <0>        -0.0668
      5 C5          1.2084   -0.6789   -0.0117 C.ar      1 <0>        -0.1050
      6 C6          0.0021   -0.0041    0.0020 C.ar      1 <0>        -0.1277
      7 C7          3.7112   -0.7071   -0.0376 C.3       1 <0>        -0.0057
      8 C8          4.1644   -0.9594    1.3773 C.ar      1 <0>         0.3418
      9 N1          3.7942   -2.0692    1.9746 N.ar      1 <0>        -0.5748
     10 C9          4.1724   -2.3336    3.2270 C.ar      1 <0>         0.0851
     11 C10         4.9733   -1.4074    3.8991 C.ar      1 <0>        -0.0352
     12 C11         5.3425   -0.2367    3.2183 C.ar      1 <0>         0.4223
     13 N2          4.9251   -0.0602    1.9740 N.ar      1 <0>        -0.5864
     14 O1          6.1182    0.6961    3.8232 O.3       1 <0>        -0.6763
     15 O2          5.3821   -1.6325    5.1734 O.3       1 <0>        -0.4636
     16 C12         3.7500   -3.5870    3.8926 C.2       1 <0>         0.5791
     17 O3          4.1004   -3.8172    5.0333 O.2       1 <0>        -0.5254
     18 N3          2.9768   -4.4726    3.2335 N.am      1 <0>        -0.7172
     19 C13         2.5588   -5.7126    3.8920 C.3       1 <0>         0.1614
     20 C14         1.7084   -6.5215    2.9467 C.ar      1 <0>        -0.1117
     21 C15         0.3383   -6.3385    2.9217 C.ar      1 <0>        -0.0694
     22 C16        -0.4425   -7.0793    2.0549 C.ar      1 <0>        -0.1552
     23 C17         0.1478   -8.0050    1.2113 C.ar      1 <0>         0.1012
     24 C18         1.5201   -8.1874    1.2373 C.ar      1 <0>        -0.1556
     25 C19         2.2995   -7.4417    2.1012 C.ar      1 <0>        -0.0697
     26 F1         -0.6146   -8.7301    0.3639 F         1 <0>        -0.1410
     27 H1         -0.9591    1.9053    0.0259 H         1 <0>         0.1149
     28 H2          1.1563    3.1654    0.0076 H         1 <0>         0.1177
     29 H3          3.3051    1.9634   -0.0196 H         1 <0>         0.1263
     30 H4          1.2231   -1.7588   -0.0176 H         1 <0>         0.1231
     31 H5         -0.9258   -0.5567    0.0082 H         1 <0>         0.1162
     32 H6          3.5884   -1.6586   -0.5549 H         1 <0>         0.0886
     33 H7          4.4573   -0.1052   -0.5563 H         1 <0>         0.0909
     34 H8          6.2244   -2.1031    5.2389 H         1 <0>         0.3667
     35 H9          2.6971   -4.2888    2.3230 H         1 <0>         0.4116
     36 H10         3.4398   -6.2899    4.1725 H         1 <0>         0.0759
     37 H11         1.9819   -5.4731    4.7853 H         1 <0>         0.0760
     38 H12        -0.1220   -5.6166    3.5800 H         1 <0>         0.1357
     39 H13        -1.5129   -6.9365    2.0357 H         1 <0>         0.1362
     40 H14         1.9816   -8.9094    0.5800 H         1 <0>         0.1361
     41 H15         3.3704   -7.5806    2.1185 H         1 <0>         0.1356
@<TRIPOS>BOND
     1    1    6 ar
     2    1    2 ar
     3    1   27 1
     4    2    3 ar
     5    2   28 1
     6    3    4 ar
     7    3   29 1
     8    4    5 ar
     9    4    7 1
    10    5    6 ar
    11    5   30 1
    12    6   31 1
    13    7   32 1
    14    7   33 1
    15    7    8 1
    16    8    9 ar
    17    8   13 ar
    18    9   10 ar
    19   10   16 1
    20   10   11 ar
    21   11   15 1
    22   11   12 ar
    23   12   14 1
    24   12   13 ar
    25   15   34 1
    26   16   17 2
    27   16   18 am
    28   18   19 1
    29   18   35 1
    30   19   20 1
    31   19   36 1
    32   19   37 1
    33   20   25 ar
    34   20   21 ar
    35   21   22 ar
    36   21   38 1
    37   22   23 ar
    38   22   39 1
    39   23   24 ar
    40   23   26 1
    41   24   25 ar
    42   24   40 1
    43   25   41 1
@<TRIPOS>MOLECULE
CHEMBL217020__2
   42    44     0     0     0
SMALL
USER_CHARGES

@<TRIPOS>ATOM
      1 C1         -0.0185    1.3755    0.0104 C.ar      1 <0>        -0.1136
      2 C2          1.1680    2.0849    0.0067 C.ar      1 <0>        -0.1182
      3 C3          2.3755    1.4121   -0.0085 C.ar      1 <0>        -0.0978
      4 C4          2.3965    0.0299   -0.0196 C.ar      1 <0>        -0.0691
      5 C5          1.2100   -0.6794   -0.0149 C.ar      1 <0>        -0.0981
      6 C6          0.0025   -0.0066   -0.0011 C.ar      1 <0>        -0.1182
      7 C7          3.7128   -0.7036   -0.0372 C.3       1 <0>        -0.0416
      8 C8          4.1644   -0.9592    1.3777 C.2       1 <0>         0.4327
      9 N1          5.3214   -1.6046    1.5779 N.pl3     1 <0>        -0.5860
     10 C9          5.7817   -1.8647    2.8486 C.2       1 <0>         0.0023
     11 C10         5.0335   -1.4508    3.9177 C.2       1 <0>         0.0719
     12 C11         3.7703   -0.7461    3.6399 C.2       1 <0>         0.4928
     13 N2          3.4151   -0.5384    2.3620 N.2       1 <0>        -0.5542
     14 O1          3.0626   -0.3548    4.5537 O.2       1 <0>        -0.4846
     15 O2          5.4415   -1.6823    5.1898 O.3       1 <0>        -0.4202
     16 C12         7.0580   -2.5771    3.0548 C.2       1 <0>         0.5690
     17 O3          7.5011   -2.7177    4.1781 O.2       1 <0>        -0.4858
     18 N3          7.7321   -3.0716    1.9977 N.am      1 <0>        -0.7274
     19 C13         8.9396   -3.8739    2.2091 C.3       1 <0>         0.1650
     20 C14         9.4981   -4.3018    0.8764 C.ar      1 <0>        -0.1274
     21 C15         9.0827   -5.4888    0.3024 C.ar      1 <0>        -0.0693
     22 C16         9.5938   -5.8820   -0.9199 C.ar      1 <0>        -0.1550
     23 C17        10.5224   -5.0865   -1.5696 C.ar      1 <0>         0.1114
     24 C18        10.9377   -3.8979   -0.9937 C.ar      1 <0>        -0.1549
     25 C19        10.4212   -3.5041    0.2262 C.ar      1 <0>        -0.0690
     26 F1         11.0231   -5.4702   -2.7643 F         1 <0>        -0.1353
     27 H1         -0.9618    1.9012    0.0269 H         1 <0>         0.1208
     28 H2          1.1516    3.1647    0.0154 H         1 <0>         0.1214
     29 H3          3.3024    1.9662   -0.0121 H         1 <0>         0.1182
     30 H4          1.2264   -1.7593   -0.0240 H         1 <0>         0.1182
     31 H5         -0.9244   -0.5608    0.0021 H         1 <0>         0.1214
     32 H6          3.5923   -1.6538   -0.5574 H         1 <0>         0.1152
     33 H7          4.4588   -0.0989   -0.5530 H         1 <0>         0.1152
     34 H8          5.8439   -1.8939    0.8136 H         1 <0>         0.4204
     35 H9          4.8356   -1.3466    5.8645 H         1 <0>         0.4123
     36 H10         7.4178   -2.8964    1.0969 H         1 <0>         0.3947
     37 H11         9.6826   -3.2791    2.7404 H         1 <0>         0.0856
     38 H12         8.6910   -4.7561    2.7990 H         1 <0>         0.0844
     39 H13         8.3587   -6.1093    0.8096 H         1 <0>         0.1364
     40 H14         9.2694   -6.8096   -1.3679 H         1 <0>         0.1398
     41 H15        11.6622   -3.2768   -1.4995 H         1 <0>         0.1399
     42 H16        10.7417   -2.5748    0.6735 H         1 <0>         0.1366
@<TRIPOS>BOND
     1    1    6 ar
     2    1    2 ar
     3    1   27 1
     4    2    3 ar
     5    2   28 1
     6    3    4 ar
     7    3   29 1
     8    4    5 ar
     9    4    7 1
    10    5    6 ar
    11    5   30 1
    12    6   31 1
    13    7   32 1
    14    7   33 1
    15    7    8 1
    16    8    9 1
    17    8   13 2
    18    9   34 1
    19    9   10 1
    20   10   16 1
    21   10   11 2
    22   11   15 1
    23   11   12 1
    24   12   14 2
    25   12   13 1
    26   15   35 1
    27   16   17 2
    28   16   18 am
    29   18   19 1
    30   18   36 1
    31   19   20 1
    32   19   37 1
    33   19   38 1
    34   20   25 ar
    35   20   21 ar
    36   21   22 ar
    37   21   39 1
    38   22   23 ar
    39   22   40 1
    40   23   24 ar
    41   23   26 1
    42   24   25 ar
    43   24   41 1
    44   25   42 1
@<TRIPOS>MOLECULE
CHEMBL108253
   35    36     0     0     0
SMALL
USER_CHARGES

@<TRIPOS>ATOM
      1 C1         -0.0167    1.3781    0.0096 C.ar      1 <0>        -0.1109
      2 C2          1.1709    2.0855    0.0021 C.ar      1 <0>        -0.1238
      3 C3          2.3773    1.4107   -0.0130 C.ar      1 <0>        -0.0949
      4 C4          2.3960    0.0285   -0.0201 C.ar      1 <0>        -0.0960
      5 C5          1.2084   -0.6789   -0.0117 C.ar      1 <0>        -0.0949
      6 C6          0.0021   -0.0041    0.0020 C.ar      1 <0>        -0.1238
      7 C7          3.7112   -0.7071   -0.0376 C.3       1 <0>         0.1012
      8 O1          4.1410   -0.9464    1.3041 O.3       1 <0>        -0.3078
      9 C8          5.3187   -1.6050    1.4666 C.ar      1 <0>         0.1147
     10 C9          6.0479   -2.0072    0.3549 C.ar      1 <0>        -0.1872
     11 C10         7.2472   -2.6773    0.5124 C.ar      1 <0>        -0.0916
     12 C11         7.7286   -2.9521    1.7755 C.ar      1 <0>        -0.1101
     13 C12         7.0025   -2.5517    2.9015 C.ar      1 <0>        -0.1178
     14 C13         5.7931   -1.8693    2.7394 C.ar      1 <0>        -0.0973
     15 C14         7.5117   -2.8429    4.2514 C.2       1 <0>         0.3828
     16 C15         8.8182   -3.5742    4.4223 C.3       1 <0>        -0.2102
     17 C16         9.1101   -3.7446    5.8909 C.2       1 <0>         0.2900
     18 O2          8.3369   -3.3163    6.7139 O.2       1 <0>        -0.4219
     19 C17        10.3556   -4.4430    6.3287 C.2       1 <0>         0.4698
     20 O3         10.5920   -4.5810    7.5180 O.co2     1 <0>        -0.6519
     21 O4         11.1370   -4.8758    5.4970 O.co2     1 <0>        -0.6689
     22 O5          6.8799   -2.4945    5.2259 O.2       1 <0>        -0.4122
     23 H1         -0.9591    1.9053    0.0259 H         1 <0>         0.1237
     24 H2          1.1563    3.1654    0.0076 H         1 <0>         0.1251
     25 H3          3.3051    1.9634   -0.0196 H         1 <0>         0.1248
     26 H4          1.2231   -1.7588   -0.0176 H         1 <0>         0.1248
     27 H5         -0.9258   -0.5567    0.0082 H         1 <0>         0.1251
     28 H6          3.5884   -1.6586   -0.5549 H         1 <0>         0.0715
     29 H7          4.4573   -0.1052   -0.5563 H         1 <0>         0.0715
     30 H8          5.6763   -1.7959   -0.6369 H         1 <0>         0.1290
     31 H9          7.8087   -2.9870   -0.3566 H         1 <0>         0.1318
     32 H10         8.6653   -3.4763    1.8947 H         1 <0>         0.1405
     33 H11         5.2291   -1.5530    3.6044 H         1 <0>         0.1405
     34 H12         8.7509   -4.5539    3.9492 H         1 <0>         0.1271
     35 H13         9.6195   -3.0002    3.9568 H         1 <0>         0.1271
@<TRIPOS>BOND
     1    1    6 ar
     2    1    2 ar
     3    1   23 1
     4    2    3 ar
     5    2   24 1
     6    3    4 ar
     7    3   25 1
     8    4    5 ar
     9    4    7 1
    10    5    6 ar
    11    5   26 1
    12    6   27 1
    13    7    8 1
    14    7   28 1
    15    7   29 1
    16    8    9 1
    17    9   14 ar
    18    9   10 ar
    19   10   11 ar
    20   10   30 1
    21   11   12 ar
    22   11   31 1
    23   12   13 ar
    24   12   32 1
    25   13   14 ar
    26   13   15 1
    27   14   33 1
    28   15   16 1
    29   15   22 2
    30   16   17 1
    31   16   34 1
    32   16   35 1
    33   17   18 2
    34   17   19 1
    35   19   20 2
    36   19   21 1
@<TRIPOS>MOLECULE
CHEMBL216874
   35    37     0     0     0
SMALL
USER_CHARGES

@<TRIPOS>ATOM
      1 C1         -0.0164    1.3547    0.0095 C.2       1 <0>        -0.1533
      2 C2          1.1760    2.0416    0.0018 C.2       1 <0>        -0.1307
      3 C3          2.3467    1.3294   -0.0132 C.2       1 <0>        -0.0645
      4 S1          1.7525   -0.3543   -0.0166 S.3       1 <0>         0.0837
      5 C4          0.0021   -0.0041    0.0020 C.2       1 <0>        -0.1982
      6 C5          3.7369    1.8251   -0.0245 C.ar      1 <0>         0.4045
      7 N1          4.7313    0.9509   -0.0386 N.ar      1 <0>        -0.5653
      8 C6          6.0004    1.3595   -0.0491 C.ar      1 <0>         0.0874
      9 C7          6.2703    2.7304   -0.0451 C.ar      1 <0>        -0.0243
     10 C8          5.1853    3.6224   -0.0301 C.ar      1 <0>         0.4248
     11 N2          3.9549    3.1378   -0.0257 N.ar      1 <0>        -0.5722
     12 O1          5.3966    4.9615   -0.0257 O.3       1 <0>        -0.6690
     13 O2          7.5480    3.1883   -0.0551 O.3       1 <0>        -0.4614
     14 C9          7.1070    0.3755   -0.0643 C.2       1 <0>         0.5805
     15 O3          8.2603    0.7581   -0.0738 O.2       1 <0>        -0.5226
     16 N3          6.8349   -0.9446   -0.0676 N.am      1 <0>        -0.7170
     17 C10         7.9296   -1.9180   -0.0826 C.3       1 <0>         0.1617
     18 C11         7.3608   -3.3136   -0.0833 C.ar      1 <0>        -0.1128
     19 C12         7.1064   -3.9564    1.1139 C.ar      1 <0>        -0.0692
     20 C13         6.5844   -5.2360    1.1145 C.ar      1 <0>        -0.1551
     21 C14         6.3162   -5.8742   -0.0846 C.ar      1 <0>         0.1017
     22 C15         6.5713   -5.2294   -1.2831 C.ar      1 <0>        -0.1554
     23 C16         7.0884   -3.9478   -1.2811 C.ar      1 <0>        -0.0694
     24 F1          5.8062   -7.1253   -0.0853 F         1 <0>        -0.1410
     25 H1         -0.9549    1.8887    0.0258 H         1 <0>         0.1312
     26 H2          1.1889    3.1215    0.0071 H         1 <0>         0.1442
     27 H3         -0.8285   -0.6944    0.0065 H         1 <0>         0.1821
     28 H4          7.9098    3.3253   -0.9413 H         1 <0>         0.3699
     29 H5          5.9143   -1.2500   -0.0600 H         1 <0>         0.4121
     30 H6          8.5338   -1.7715   -0.9779 H         1 <0>         0.0767
     31 H7          8.5512   -1.7795    0.8020 H         1 <0>         0.0770
     32 H8          7.3161   -3.4585    2.0490 H         1 <0>         0.1359
     33 H9          6.3861   -5.7381    2.0499 H         1 <0>         0.1364
     34 H10         6.3628   -5.7264   -2.2190 H         1 <0>         0.1363
     35 H11         7.2834   -3.4430   -2.2158 H         1 <0>         0.1357
@<TRIPOS>BOND
     1    1    5 2
     2    1    2 1
     3    1   25 1
     4    2    3 2
     5    2   26 1
     6    3    4 1
     7    3    6 1
     8    4    5 1
     9    5   27 1
    10    6    7 ar
    11    6   11 ar
    12    7    8 ar
    13    8   14 1
    14    8    9 ar
    15    9   13 1
    16    9   10 ar
    17   10   12 1
    18   10   11 ar
    19   13   28 1
    20   14   15 2
    21   14   16 am
    22   16   17 1
    23   16   29 1
    24   17   18 1
    25   17   30 1
    26   17   31 1
    27   18   23 ar
    28   18   19 ar
    29   19   20 ar
    30   19   32 1
    31   20   21 ar
    32   20   33 1
    33   21   22 ar
    34   21   24 1
    35   22   23 ar
    36   22   34 1
    37   23   35 1
@<TRIPOS>MOLECULE
CHEMBL216874__1
   36    38     0     0     0
SMALL
USER_CHARGES

@<TRIPOS>ATOM
      1 C1          5.6990    7.1093   -0.0139 C.2       1 <0>        -0.1862
      2 C2          5.0233    5.9119   -0.0174 C.2       1 <0>        -0.0346
      3 C3          5.8154    4.7737   -0.0292 C.2       1 <0>        -0.2280
      4 S1          7.4565    5.4699   -0.0346 S.3       1 <0>         0.2121
      5 C4          7.0545    7.1009   -0.0220 C.2       1 <0>        -0.1998
      6 C5          5.4091    3.3652   -0.0353 C.2       1 <0>         0.5352
      7 N1          6.3694    2.4023   -0.0471 N.pl3     1 <0>        -0.5921
      8 C6          6.0302    1.0648   -0.0526 C.2       1 <0>         0.0070
      9 C7          4.7076    0.7188   -0.0461 C.2       1 <0>         0.0758
     10 C8          3.7056    1.7995   -0.0333 C.2       1 <0>         0.4984
     11 N2          4.1209    3.0701   -0.0236 N.2       1 <0>        -0.5629
     12 O1          2.5131    1.5380   -0.0271 O.2       1 <0>        -0.4855
     13 O2          4.3281   -0.5828   -0.0516 O.3       1 <0>        -0.4180
     14 C9          7.0771    0.0257   -0.0660 C.2       1 <0>         0.5701
     15 O3          6.7706   -1.1474    0.0251 O.2       1 <0>        -0.4837
     16 N3          8.3735    0.3766   -0.1790 N.am      1 <0>        -0.7277
     17 C10         9.4039   -0.6572   -0.3042 C.3       1 <0>         0.1649
     18 C11        10.7583   -0.0057   -0.4146 C.ar      1 <0>        -0.1278
     19 C12        11.2640    0.3302   -1.6567 C.ar      1 <0>        -0.0691
     20 C13        12.5057    0.9281   -1.7592 C.ar      1 <0>        -0.1550
     21 C14        13.2434    1.1908   -0.6173 C.ar      1 <0>         0.1113
     22 C15        12.7359    0.8539    0.6262 C.ar      1 <0>        -0.1549
     23 C16        11.4917    0.2609    0.7266 C.ar      1 <0>        -0.0688
     24 F1         14.4575    1.7749   -0.7163 F         1 <0>        -0.1355
     25 H1          5.1573    8.0436   -0.0093 H         1 <0>         0.1472
     26 H2          3.9445    5.8610   -0.0110 H         1 <0>         0.1614
     27 H3          7.7232    7.9490   -0.0209 H         1 <0>         0.1962
     28 H4          7.3048    2.6590   -0.0520 H         1 <0>         0.4179
     29 H5          3.3699   -0.7131   -0.0461 H         1 <0>         0.4130
     30 H6          8.6242    1.3136   -0.1775 H         1 <0>         0.3942
     31 H7          9.3812   -1.3012    0.5749 H         1 <0>         0.0864
     32 H8          9.2138   -1.2536   -1.1965 H         1 <0>         0.0853
     33 H9         10.6886    0.1249   -2.5473 H         1 <0>         0.1367
     34 H10        12.9007    1.1901   -2.7296 H         1 <0>         0.1398
     35 H11        13.3106    1.0581    1.5175 H         1 <0>         0.1398
     36 H12        11.0937    0.0021    1.6966 H         1 <0>         0.1369
@<TRIPOS>BOND
     1    1    5 2
     2    1    2 1
     3    1   25 1
     4    2    3 2
     5    2   26 1
     6    3    4 1
     7    3    6 1
     8    4    5 1
     9    5   27 1
    10    6    7 1
    11    6   11 2
    12    7   28 1
    13    7    8 1
    14    8   14 1
    15    8    9 2
    16    9   13 1
    17    9   10 1
    18   10   12 2
    19   10   11 1
    20   13   29 1
    21   14   15 2
    22   14   16 am
    23   16   17 1
    24   16   30 1
    25   17   18 1
    26   17   31 1
    27   17   32 1
    28   18   23 ar
    29   18   19 ar
    30   19   20 ar
    31   19   33 1
    32   20   21 ar
    33   20   34 1
    34   21   22 ar
    35   21   24 1
    36   22   23 ar
    37   22   35 1
    38   23   36 1
@<TRIPOS>MOLECULE
CHEMBL216874__2
   36    38     0     0     0
SMALL
USER_CHARGES

@<TRIPOS>ATOM
      1 C1         -0.0163    1.3505    0.0095 C.2       1 <0>        -0.1826
      2 C2          1.1771    2.0354    0.0018 C.2       1 <0>        -0.0551
      3 C3          2.3202    1.2521   -0.0134 C.2       1 <0>        -0.2060
      4 S1          1.6360   -0.3940   -0.0157 S.3       1 <0>         0.2156
      5 C4          0.0021   -0.0041    0.0020 C.2       1 <0>        -0.2113
      6 C5          3.7270    1.6689   -0.0250 C.2       1 <0>         0.4536
      7 N1          4.0170    2.9532   -0.0213 N.2       1 <0>        -0.4690
      8 C6          5.2873    3.3830   -0.0311 C.2       1 <0>         0.0593
      9 C7          6.3255    2.4634   -0.0454 C.2       1 <0>         0.0576
     10 C8          6.0066    1.0786   -0.0493 C.2       1 <0>         0.5035
     11 N2          4.7069    0.7138   -0.0337 N.am      1 <0>        -0.6159
     12 O1          6.8886    0.2373   -0.0622 O.2       1 <0>        -0.5169
     13 O2          7.6180    2.8771   -0.0559 O.3       1 <0>        -0.4096
     14 C9          5.5806    4.8347   -0.0271 C.2       1 <0>         0.5781
     15 O3          6.7324    5.2219   -0.0359 O.2       1 <0>        -0.5029
     16 N3          4.5700    5.7263   -0.0136 N.am      1 <0>        -0.7109
     17 C10         4.8601    7.1623   -0.0096 C.3       1 <0>         0.1624
     18 C11         3.5669    7.9359    0.0059 C.ar      1 <0>        -0.1215
     19 C12         2.9602    8.2911   -1.1844 C.ar      1 <0>        -0.0686
     20 C13         1.7741    9.0002   -1.1714 C.ar      1 <0>        -0.1554
     21 C14         1.1934    9.3549    0.0344 C.ar      1 <0>         0.1081
     22 C15         1.8020    8.9987    1.2260 C.ar      1 <0>        -0.1554
     23 C16         2.9853    8.2850    1.2105 C.ar      1 <0>        -0.0686
     24 F1          0.0341   10.0485    0.0484 F         1 <0>        -0.1373
     25 H1         -0.9545    1.8853    0.0258 H         1 <0>         0.1440
     26 H2          1.2202    3.1146    0.0068 H         1 <0>         0.1565
     27 H3         -0.8410   -0.6790    0.0064 H         1 <0>         0.1939
     28 H4          4.4675   -0.2262   -0.0325 H         1 <0>         0.4231
     29 H5          8.2619    2.1557   -0.0655 H         1 <0>         0.4069
     30 H6          3.6506    5.4172   -0.0065 H         1 <0>         0.4112
     31 H7          5.4439    7.4126    0.8762 H         1 <0>         0.0821
     32 H8          5.4274    7.4208   -0.9037 H         1 <0>         0.0821
     33 H9          3.4135    8.0146   -2.1249 H         1 <0>         0.1359
     34 H10         1.3005    9.2779   -2.1015 H         1 <0>         0.1384
     35 H11         1.3501    9.2751    2.1672 H         1 <0>         0.1384
     36 H12         3.4579    8.0031    2.1398 H         1 <0>         0.1359
@<TRIPOS>BOND
     1    1    5 2
     2    1    2 1
     3    1   25 1
     4    2    3 2
     5    2   26 1
     6    3    4 1
     7    3    6 1
     8    4    5 1
     9    5   27 1
    10    6    7 2
    11    6   11 1
    12    7    8 1
    13    8   14 1
    14    8    9 2
    15    9   13 1
    16    9   10 1
    17   10   12 2
    18   10   11 am
    19   11   28 1
    20   13   29 1
    21   14   15 2
    22   14   16 am
    23   16   17 1
    24   16   30 1
    25   17   18 1
    26   17   31 1
    27   17   32 1
    28   18   23 ar
    29   18   19 ar
    30   19   20 ar
    31   19   33 1
    32   20   21 ar
    33   20   34 1
    34   21   22 ar
    35   21   24 1
    36   22   23 ar
    37   22   35 1
    38   23   36 1
@<TRIPOS>MOLECULE
CHEMBL288097
   38    41     0     0     0
SMALL
USER_CHARGES

@<TRIPOS>ATOM
      1 C1         -0.0167    1.3781    0.0096 C.ar      1 <0>        -0.1221
      2 C2          1.1709    2.0855    0.0021 C.ar      1 <0>        -0.1180
      3 C3          2.3773    1.4107   -0.0130 C.ar      1 <0>        -0.1146
      4 C4          2.3960    0.0285   -0.0201 C.ar      1 <0>        -0.0815
      5 C5          1.2084   -0.6789   -0.0117 C.ar      1 <0>        -0.1144
      6 C6          0.0021   -0.0041    0.0020 C.ar      1 <0>        -0.1170
      7 C7          3.7112   -0.7071   -0.0376 C.3       1 <0>        -0.0399
      8 C8          4.1644   -0.9594    1.3773 C.ar      1 <0>        -0.1055
      9 C9          4.9547   -0.0238    2.0285 C.ar      1 <0>        -0.0483
     10 C10         5.3803   -0.2376    3.3217 C.ar      1 <0>        -0.1383
     11 C11         5.0187   -1.4023    3.9926 C.ar      1 <0>         0.1517
     12 C12         4.2156   -2.3442    3.3310 C.ar      1 <0>        -0.2196
     13 C13         3.7884   -2.1168    2.0241 C.ar      1 <0>        -0.0226
     14 C14         3.8245   -3.5713    4.0584 C.2       1 <0>         0.4413
     15 O1          3.3280   -4.5279    3.4923 O.2       1 <0>        -0.4313
     16 C15         4.0739   -3.5643    5.5130 C.ar      1 <0>        -0.2461
     17 C16         4.8845   -2.5489    6.0488 C.ar      1 <0>         0.1676
     18 O2          5.4428   -1.6123    5.2546 O.3       1 <0>        -0.2241
     19 C17         5.1118   -2.5212    7.4191 C.ar      1 <0>        -0.1389
     20 C18         4.5544   -3.4832    8.2380 C.ar      1 <0>        -0.0637
     21 C19         3.7618   -4.4926    7.7116 C.ar      1 <0>         0.0481
     22 C20         3.5172   -4.5407    6.3445 C.ar      1 <0>         0.1778
     23 O3          2.7442   -5.5266    5.8211 O.3       1 <0>        -0.4731
     24 O4          3.2247   -5.4350    8.5331 O.3       1 <0>        -0.4841
     25 H1         -0.9591    1.9053    0.0259 H         1 <0>         0.1216
     26 H2          1.1563    3.1654    0.0076 H         1 <0>         0.1224
     27 H3          3.3051    1.9634   -0.0196 H         1 <0>         0.1216
     28 H4          1.2231   -1.7588   -0.0176 H         1 <0>         0.1213
     29 H5         -0.9258   -0.5567    0.0082 H         1 <0>         0.1224
     30 H6          3.5884   -1.6586   -0.5549 H         1 <0>         0.0870
     31 H7          4.4573   -0.1052   -0.5563 H         1 <0>         0.0883
     32 H8          5.2395    0.8832    1.5160 H         1 <0>         0.1407
     33 H9          5.9958    0.4998    3.8154 H         1 <0>         0.1456
     34 H10         3.1700   -2.8447    1.5201 H         1 <0>         0.1410
     35 H11         5.7277   -1.7436    7.8460 H         1 <0>         0.1521
     36 H12         4.7382   -3.4496    9.3017 H         1 <0>         0.1526
     37 H13         3.2376   -6.3157    5.5586 H         1 <0>         0.4048
     38 H14         2.3530   -5.2026    8.8813 H         1 <0>         0.3949
@<TRIPOS>BOND
     1    1    6 ar
     2    1    2 ar
     3    1   25 1
     4    2    3 ar
     5    2   26 1
     6    3    4 ar
     7    3   27 1
     8    4    5 ar
     9    4    7 1
    10    5    6 ar
    11    5   28 1
    12    6   29 1
    13    7    8 1
    14    7   30 1
    15    7   31 1
    16    8   13 ar
    17    8    9 ar
    18    9   10 ar
    19    9   32 1
    20   10   11 ar
    21   10   33 1
    22   11   18 1
    23   11   12 ar
    24   12   13 ar
    25   12   14 1
    26   13   34 1
    27   14   15 2
    28   14   16 1
    29   16   22 ar
    30   16   17 ar
    31   17   18 1
    32   17   19 ar
    33   19   20 ar
    34   19   35 1
    35   20   21 ar
    36   20   36 1
    37   21   22 ar
    38   21   24 1
    39   22   23 1
    40   23   37 1
    41   24   38 1
@<TRIPOS>MOLECULE
CHEMBL216389
   51    53     0     0     0
SMALL
USER_CHARGES

@<TRIPOS>ATOM
      1 C1         -0.1596    1.4552    0.0260 C.3       1 <0>         0.0498
      2 N1         -0.0670   -0.0068    0.0098 N.am      1 <0>        -0.5139
      3 C2         -0.1674   -0.6760   -1.1598 C.2       1 <0>         0.4954
      4 O1         -0.3346   -0.0824   -2.2110 O.2       1 <0>        -0.4822
      5 C3         -0.0684   -2.1409   -1.1250 C.2       1 <0>         0.1231
      6 C4          0.1222   -2.7450    0.1074 C.2       1 <0>         0.0142
      7 N2          0.2085   -1.9819    1.2121 N.2       1 <0>        -0.4252
      8 C5          0.1247   -0.6852    1.1669 C.2       1 <0>         0.2782
      9 C6          0.2385    0.0931    2.4523 C.3       1 <0>         0.0930
     10 C7          0.8452   -0.8001    3.5366 C.3       1 <0>        -0.1264
     11 C8          0.9591   -0.0050    4.8405 C.3       1 <0>        -0.1385
     12 C9         -0.4259    0.5204    5.2291 C.3       1 <0>        -0.1503
     13 C10        -0.9855    1.3646    4.0821 C.3       1 <0>        -0.0086
     14 N3         -1.0948    0.5413    2.8719 N.4       1 <0>        -0.3850
     15 C11        -1.9374   -0.6290    3.1520 C.3       1 <0>        -0.0604
     16 C12         0.2293   -4.2179    0.2078 C.2       1 <0>         0.5751
     17 O2          0.1502   -4.9025   -0.7932 O.2       1 <0>        -0.4957
     18 N4          0.4146   -4.7998    1.4093 N.am      1 <0>        -0.7089
     19 C13         0.5206   -6.2575    1.5086 C.3       1 <0>         0.1614
     20 C14         0.7231   -6.6494    2.9496 C.ar      1 <0>        -0.1260
     21 C15         2.0019   -6.7472    3.4656 C.ar      1 <0>        -0.0684
     22 C16         2.1889   -7.1060    4.7870 C.ar      1 <0>        -0.1546
     23 C17         1.0947   -7.3677    5.5942 C.ar      1 <0>         0.1125
     24 C18        -0.1856   -7.2695    5.0763 C.ar      1 <0>        -0.1558
     25 C19        -0.3702   -6.9054    3.7560 C.ar      1 <0>        -0.0700
     26 F1          1.2763   -7.7191    6.8860 F         1 <0>        -0.1341
     27 O3         -0.1607   -2.8772   -2.2603 O.3       1 <0>        -0.3912
     28 H1          0.8185    1.8836   -0.1929 H         1 <0>         0.1038
     29 H2         -0.8763    1.7822   -0.7273 H         1 <0>         0.1152
     30 H3         -0.4898    1.7874    1.0102 H         1 <0>         0.0679
     31 H4          0.8803    0.9601    2.2960 H         1 <0>         0.1600
     32 H5          0.2044   -1.6677    3.6942 H         1 <0>         0.1061
     33 H6          1.8358   -1.1303    3.2240 H         1 <0>         0.1187
     34 H7          1.3379   -0.6531    5.6307 H         1 <0>         0.1027
     35 H8          1.6402    0.8339    4.6976 H         1 <0>         0.0851
     36 H9         -1.0931   -0.3198    5.4218 H         1 <0>         0.0930
     37 H10        -0.3439    1.1340    6.1263 H         1 <0>         0.1167
     38 H11        -1.9714    1.7404    4.3556 H         1 <0>         0.1387
     39 H12        -0.3178    2.2046    3.8905 H         1 <0>         0.1337
     40 H13        -1.4851   -1.2202    3.9481 H         1 <0>         0.1377
     41 H14        -2.9279   -0.2972    3.4637 H         1 <0>         0.1311
     42 H15        -2.0247   -1.2377    2.2520 H         1 <0>         0.1179
     43 H16         0.4777   -4.2533    2.2082 H         1 <0>         0.4065
     44 H17        -0.3947   -6.7149    1.1329 H         1 <0>         0.0846
     45 H18         1.3683   -6.6014    0.9160 H         1 <0>         0.0848
     46 H19         2.8552   -6.5433    2.8357 H         1 <0>         0.1359
     47 H20         3.1880   -7.1827    5.1898 H         1 <0>         0.1403
     48 H21        -1.0397   -7.4738    5.7049 H         1 <0>         0.1396
     49 H22        -1.3689   -6.8244    3.3530 H         1 <0>         0.1350
     50 H23        -0.2934   -2.3510   -3.0607 H         1 <0>         0.4181
     51 H24        -1.5136    1.0856    2.1327 H         1 <0>         0.4194
@<TRIPOS>BOND
     1    1    2 1
     2    1   28 1
     3    1   29 1
     4    1   30 1
     5    2    8 1
     6    2    3 am
     7    3    4 2
     8    3    5 1
     9    5    6 2
    10    5   27 1
    11    6    7 1
    12    6   16 1
    13    7    8 2
    14    8    9 1
    15    9   14 1
    16    9   10 1
    17    9   31 1
    18   10   11 1
    19   10   32 1
    20   10   33 1
    21   11   12 1
    22   11   34 1
    23   11   35 1
    24   12   13 1
    25   12   36 1
    26   12   37 1
    27   13   14 1
    28   13   38 1
    29   13   39 1
    30   14   15 1
    31   14   51 1
    32   15   40 1
    33   15   41 1
    34   15   42 1
    35   16   17 2
    36   16   18 am
    37   18   19 1
    38   18   43 1
    39   19   20 1
    40   19   44 1
    41   19   45 1
    42   20   25 ar
    43   20   21 ar
    44   21   22 ar
    45   21   46 1
    46   22   23 ar
    47   22   47 1
    48   23   24 ar
    49   23   26 1
    50   24   25 ar
    51   24   48 1
    52   25   49 1
    53   27   50 1
@<TRIPOS>MOLECULE
CHEMBL216389__1
   50    52     0     0     0
SMALL
USER_CHARGES

@<TRIPOS>ATOM
      1 C1         -0.1845    1.4322    0.0342 C.3       1 <0>         0.0496
      2 N1         -0.0645   -0.0278    0.0262 N.am      1 <0>        -0.4974
      3 C2         -0.1541   -0.7056   -1.1393 C.2       1 <0>         0.4927
      4 O1         -0.3340   -0.1213   -2.1936 O.2       1 <0>        -0.5158
      5 C3         -0.0275   -2.1681   -1.0963 C.2       1 <0>         0.0663
      6 C4          0.1763   -2.7614    0.1393 C.2       1 <0>         0.0387
      7 N2          0.2500   -1.9904    1.2395 N.2       1 <0>        -0.4792
      8 C5          0.1417   -0.6959    1.1869 C.2       1 <0>         0.3686
      9 C6          0.2429    0.0918    2.4677 C.3       1 <0>         0.1327
     10 C7          0.8409   -0.7924    3.5643 C.3       1 <0>        -0.1356
     11 C8          0.9230    0.0057    4.8685 C.3       1 <0>        -0.1209
     12 C9         -0.4764    0.5013    5.2434 C.3       1 <0>        -0.1611
     13 C10        -1.0362    1.3480    4.0981 C.3       1 <0>         0.0546
     14 N3         -1.0955    0.5396    2.8737 N.3       1 <0>        -0.5305
     15 C11        -2.0046   -0.6022    3.0402 C.3       1 <0>         0.0156
     16 C12         0.3112   -4.2314    0.2479 C.2       1 <0>         0.5790
     17 O2          0.2434   -4.9232   -0.7490 O.2       1 <0>        -0.5080
     18 N4          0.5092   -4.8028    1.4524 N.am      1 <0>        -0.7118
     19 C13         0.6428   -6.2577    1.5600 C.3       1 <0>         0.1625
     20 C14         0.8548   -6.6374    3.0029 C.ar      1 <0>        -0.1205
     21 C15         2.1360   -6.7081    3.5173 C.ar      1 <0>        -0.0687
     22 C16         2.3317   -7.0558    4.8405 C.ar      1 <0>        -0.1552
     23 C17         1.2439   -7.3333    5.6509 C.ar      1 <0>         0.1079
     24 C18        -0.0388   -7.2622    5.1346 C.ar      1 <0>        -0.1553
     25 C19        -0.2323   -6.9092    3.8125 C.ar      1 <0>        -0.0689
     26 F1          1.4341   -7.6737    6.9444 F         1 <0>        -0.1373
     27 O3         -0.1077   -2.9125   -2.2271 O.3       1 <0>        -0.4108
     28 H1          0.8093    1.8787   -0.0003 H         1 <0>         0.0789
     29 H2         -0.7579    1.7544   -0.8350 H         1 <0>         0.0963
     30 H3         -0.6941    1.7499    0.9438 H         1 <0>         0.1136
     31 H4          0.8840    0.9593    2.3109 H         1 <0>         0.1105
     32 H5          0.2075   -1.6671    3.7122 H         1 <0>         0.0837
     33 H6          1.8404   -1.1118    3.2695 H         1 <0>         0.0766
     34 H7          1.3081   -0.6335    5.6630 H         1 <0>         0.0700
     35 H8          1.5873    0.8590    4.7321 H         1 <0>         0.0655
     36 H9         -1.1304   -0.3531    5.4177 H         1 <0>         0.0682
     37 H10        -0.4179    1.1062    6.1483 H         1 <0>         0.0729
     38 H11        -2.0383    1.6907    4.3560 H         1 <0>         0.0844
     39 H12        -0.3891    2.2096    3.9335 H         1 <0>         0.0810
     40 H13        -1.6531   -1.2301    3.8589 H         1 <0>         0.0453
     41 H14        -3.0071   -0.2386    3.2657 H         1 <0>         0.0730
     42 H15        -2.0281   -1.1852    2.1195 H         1 <0>         0.0633
     43 H16         0.5633   -4.2506    2.2481 H         1 <0>         0.4103
     44 H17        -0.2644   -6.7343    1.1884 H         1 <0>         0.0810
     45 H18         1.4959   -6.5890    0.9679 H         1 <0>         0.0811
     46 H19         2.9844   -6.4919    2.8849 H         1 <0>         0.1357
     47 H20         3.3327   -7.1113    5.2421 H         1 <0>         0.1383
     48 H21        -0.8880   -7.4787    5.7657 H         1 <0>         0.1382
     49 H22        -1.2330   -6.8493    3.4107 H         1 <0>         0.1355
     50 H23        -0.2514   -2.3936   -3.0303 H         1 <0>         0.4060
@<TRIPOS>BOND
     1    1    2 1
     2    1   28 1
     3    1   29 1
     4    1   30 1
     5    2    8 1
     6    2    3 am
     7    3    4 2
     8    3    5 1
     9    5    6 2
    10    5   27 1
    11    6    7 1
    12    6   16 1
    13    7    8 2
    14    8    9 1
    15    9   14 1
    16    9   10 1
    17    9   31 1
    18   10   11 1
    19   10   32 1
    20   10   33 1
    21   11   12 1
    22   11   34 1
    23   11   35 1
    24   12   13 1
    25   12   36 1
    26   12   37 1
    27   13   14 1
    28   13   38 1
    29   13   39 1
    30   14   15 1
    31   15   40 1
    32   15   41 1
    33   15   42 1
    34   16   17 2
    35   16   18 am
    36   18   19 1
    37   18   43 1
    38   19   20 1
    39   19   44 1
    40   19   45 1
    41   20   25 ar
    42   20   21 ar
    43   21   22 ar
    44   21   46 1
    45   22   23 ar
    46   22   47 1
    47   23   24 ar
    48   23   26 1
    49   24   25 ar
    50   24   48 1
    51   25   49 1
    52   27   50 1
@<TRIPOS>MOLECULE
CHEMBL216389__2
   51    53     0     0     0
SMALL
USER_CHARGES

@<TRIPOS>ATOM
      1 C1         -0.1772    1.4775    0.0407 C.3       1 <0>         0.0401
      2 N1         -0.0762    0.0162    0.0141 N.am      1 <0>        -0.5006
      3 C2         -0.1785   -0.6457   -1.1595 C.2       1 <0>         0.4955
      4 O1         -0.3545   -0.0461   -2.2057 O.2       1 <0>        -0.4813
      5 C3         -0.0708   -2.1101   -1.1351 C.2       1 <0>         0.1165
      6 C4          0.1295   -2.7214    0.0923 C.2       1 <0>         0.0200
      7 N2          0.2169   -1.9652    1.2017 N.2       1 <0>        -0.4742
      8 C5          0.1253   -0.6688    1.1656 C.2       1 <0>         0.3033
      9 C6          0.2410    0.1014    2.4557 C.3       1 <0>         0.0933
     10 C7         -1.1211    0.1366    3.1520 C.3       1 <0>        -0.1395
     11 C8         -0.9987    0.9204    4.4619 C.3       1 <0>        -0.1351
     12 C9          0.0819    0.2736    5.3332 C.3       1 <0>        -0.1496
     13 C10         1.3995    0.2334    4.5561 C.3       1 <0>        -0.0076
     14 N3          1.2239   -0.5518    3.3285 N.4       1 <0>        -0.3730
     15 C11         2.5099   -0.6530    2.6255 C.3       1 <0>        -0.0526
     16 C12         0.2457   -4.1943    0.1822 C.2       1 <0>         0.5751
     17 O2          0.1656   -4.8727   -0.8230 O.2       1 <0>        -0.4927
     18 N4          0.4404   -4.7832    1.3788 N.am      1 <0>        -0.7107
     19 C13         0.5555   -6.2409    1.4677 C.3       1 <0>         0.1610
     20 C14         0.7676   -6.6413    2.9050 C.ar      1 <0>        -0.1263
     21 C15         2.0495   -6.7350    3.4139 C.ar      1 <0>        -0.0709
     22 C16         2.2452   -7.1016    4.7320 C.ar      1 <0>        -0.1562
     23 C17         1.1567   -7.3752    5.5428 C.ar      1 <0>         0.1126
     24 C18        -0.1268   -7.2810    5.0319 C.ar      1 <0>        -0.1546
     25 C19        -0.3202   -6.9091    3.7151 C.ar      1 <0>        -0.0689
     26 F1          1.3468   -7.7341    6.8313 F         1 <0>        -0.1336
     27 O3         -0.1645   -2.8393   -2.2748 O.3       1 <0>        -0.3936
     28 H1          0.8220    1.9115    0.0054 H         1 <0>         0.0936
     29 H2         -0.7518    1.8177   -0.8209 H         1 <0>         0.1146
     30 H3         -0.6771    1.7905    0.9573 H         1 <0>         0.0952
     31 H4          0.5654    1.1199    2.2424 H         1 <0>         0.1592
     32 H5         -1.8491    0.6236    2.5031 H         1 <0>         0.1145
     33 H6         -1.4469   -0.8813    3.3660 H         1 <0>         0.1029
     34 H7         -0.7226    1.9523    4.2448 H         1 <0>         0.0863
     35 H8         -1.9524    0.9003    4.9892 H         1 <0>         0.1032
     36 H9          0.2139    0.8586    6.2434 H         1 <0>         0.1181
     37 H10        -0.2189   -0.7414    5.5925 H         1 <0>         0.0923
     38 H11         1.6995    1.2489    4.2976 H         1 <0>         0.1321
     39 H12         2.1711   -0.2263    5.1737 H         1 <0>         0.1396
     40 H13         2.9009    0.3470    2.4377 H         1 <0>         0.1237
     41 H14         3.2170   -1.2102    3.2401 H         1 <0>         0.1337
     42 H15         2.3658   -1.1708    1.6773 H         1 <0>         0.1186
     43 H16         0.5044   -4.2417    2.1811 H         1 <0>         0.4023
     44 H17        -0.3590   -6.7011    1.0935 H         1 <0>         0.0851
     45 H18         1.4022   -6.5758    0.8685 H         1 <0>         0.0851
     46 H19         2.8984   -6.5219    2.7812 H         1 <0>         0.1353
     47 H20         3.2467   -7.1751    5.1293 H         1 <0>         0.1399
     48 H21        -0.9766   -7.4945    5.6634 H         1 <0>         0.1406
     49 H22        -1.3214   -6.8313    3.3176 H         1 <0>         0.1362
     50 H23        -0.3043   -2.3086   -3.0709 H         1 <0>         0.4180
     51 H24         0.8990   -1.4771    3.5658 H         1 <0>         0.4337
@<TRIPOS>BOND
     1    1    2 1
     2    1   28 1
     3    1   29 1
     4    1   30 1
     5    2    8 1
     6    2    3 am
     7    3    4 2
     8    3    5 1
     9    5    6 2
    10    5   27 1
    11    6    7 1
    12    6   16 1
    13    7    8 2
    14    8    9 1
    15    9   14 1
    16    9   10 1
    17    9   31 1
    18   10   11 1
    19   10   32 1
    20   10   33 1
    21   11   12 1
    22   11   34 1
    23   11   35 1
    24   12   13 1
    25   12   36 1
    26   12   37 1
    27   13   14 1
    28   13   38 1
    29   13   39 1
    30   14   15 1
    31   14   51 1
    32   15   40 1
    33   15   41 1
    34   15   42 1
    35   16   17 2
    36   16   18 am
    37   18   19 1
    38   18   43 1
    39   19   20 1
    40   19   44 1
    41   19   45 1
    42   20   25 ar
    43   20   21 ar
    44   21   22 ar
    45   21   46 1
    46   22   23 ar
    47   22   47 1
    48   23   24 ar
    49   23   26 1
    50   24   25 ar
    51   24   48 1
    52   25   49 1
    53   27   50 1
@<TRIPOS>MOLECULE
CHEMBL216389__3
   50    52     0     0     0
SMALL
USER_CHARGES

@<TRIPOS>ATOM
      1 C1         -0.1793    1.4538    0.0286 C.3       1 <0>         0.0513
      2 N1         -0.0766   -0.0074    0.0110 N.am      1 <0>        -0.5087
      3 C2         -0.1773   -0.6767   -1.1586 C.2       1 <0>         0.4947
      4 O1         -0.3530   -0.0836   -2.2086 O.2       1 <0>        -0.5158
      5 C3         -0.0679   -2.1408   -1.1251 C.2       1 <0>         0.0647
      6 C4          0.1321   -2.7443    0.1061 C.2       1 <0>         0.0380
      7 N2          0.2178   -1.9813    1.2110 N.2       1 <0>        -0.4497
      8 C5          0.1247   -0.6852    1.1669 C.2       1 <0>         0.3546
      9 C6          0.2385    0.0931    2.4523 C.3       1 <0>         0.1400
     10 C7         -1.1234    0.1282    3.1494 C.3       1 <0>        -0.1104
     11 C8         -0.9985    0.9026    4.4644 C.3       1 <0>        -0.1199
     12 C9          0.0669    0.2373    5.3401 C.3       1 <0>        -0.1202
     13 C10         1.3944    0.1990    4.5795 C.3       1 <0>         0.0562
     14 N3          1.2226   -0.5531    3.3301 N.3       1 <0>        -0.5145
     15 C11         2.5077   -0.7291    2.6406 C.3       1 <0>         0.0207
     16 C12         0.2499   -4.2165    0.2051 C.2       1 <0>         0.5789
     17 O2          0.1713   -4.9011   -0.7960 O.2       1 <0>        -0.5103
     18 N4          0.4443   -4.7978    1.4054 N.am      1 <0>        -0.7098
     19 C13         0.5609   -6.2549    1.5034 C.3       1 <0>         0.1628
     20 C14         0.7723   -6.6462    2.9433 C.ar      1 <0>        -0.1195
     21 C15         2.0539   -6.7353    3.4538 C.ar      1 <0>        -0.0678
     22 C16         2.2489   -7.0936    4.7742 C.ar      1 <0>        -0.1550
     23 C17         1.1601   -7.3635    5.5858 C.ar      1 <0>         0.1078
     24 C18        -0.1231   -7.2739    5.0734 C.ar      1 <0>        -0.1550
     25 C19        -0.3158   -6.9103    3.7541 C.ar      1 <0>        -0.0681
     26 F1          1.3496   -7.7143    6.8766 F         1 <0>        -0.1379
     27 O3         -0.1598   -2.8770   -2.2604 O.3       1 <0>        -0.4100
     28 H1          0.8195    1.8888   -0.0081 H         1 <0>         0.0835
     29 H2         -0.7531    1.7881   -0.8358 H         1 <0>         0.1025
     30 H3         -0.6807    1.7719    0.9426 H         1 <0>         0.0941
     31 H4          0.5605    1.1111    2.2332 H         1 <0>         0.0684
     32 H5         -1.8499    0.6219    2.5040 H         1 <0>         0.0693
     33 H6         -1.4526   -0.8901    3.3566 H         1 <0>         0.0872
     34 H7         -0.7070    1.9318    4.2548 H         1 <0>         0.0621
     35 H8         -1.9560    0.8931    4.9852 H         1 <0>         0.0733
     36 H9          0.1909    0.8090    6.2599 H         1 <0>         0.0712
     37 H10        -0.2435   -0.7792    5.5818 H         1 <0>         0.0765
     38 H11         1.7111    1.2165    4.3503 H         1 <0>         0.0354
     39 H12         2.1516   -0.2869    5.1948 H         1 <0>         0.0835
     40 H13         2.8944    0.2443    2.3389 H         1 <0>         0.0230
     41 H14         3.2181   -1.2098    3.3132 H         1 <0>         0.0764
     42 H15         2.3641   -1.3524    1.7580 H         1 <0>         0.0707
     43 H16         0.5070   -4.2514    2.2044 H         1 <0>         0.4143
     44 H17        -0.3528   -6.7183    1.1313 H         1 <0>         0.0803
     45 H18         1.4085   -6.5924    0.9070 H         1 <0>         0.0803
     46 H19         2.9031   -6.5251    2.8204 H         1 <0>         0.1350
     47 H20         3.2503   -7.1635    5.1727 H         1 <0>         0.1376
     48 H21        -0.9731   -7.4845    5.7054 H         1 <0>         0.1378
     49 H22        -1.3168   -6.8360    3.3554 H         1 <0>         0.1351
     50 H23        -0.2996   -2.3513   -3.0599 H         1 <0>         0.4055
@<TRIPOS>BOND
     1    1    2 1
     2    1   28 1
     3    1   29 1
     4    1   30 1
     5    2    8 1
     6    2    3 am
     7    3    4 2
     8    3    5 1
     9    5    6 2
    10    5   27 1
    11    6    7 1
    12    6   16 1
    13    7    8 2
    14    8    9 1
    15    9   14 1
    16    9   10 1
    17    9   31 1
    18   10   11 1
    19   10   32 1
    20   10   33 1
    21   11   12 1
    22   11   34 1
    23   11   35 1
    24   12   13 1
    25   12   36 1
    26   12   37 1
    27   13   14 1
    28   13   38 1
    29   13   39 1
    30   14   15 1
    31   15   40 1
    32   15   41 1
    33   15   42 1
    34   16   17 2
    35   16   18 am
    36   18   19 1
    37   18   43 1
    38   19   20 1
    39   19   44 1
    40   19   45 1
    41   20   25 ar
    42   20   21 ar
    43   21   22 ar
    44   21   46 1
    45   22   23 ar
    46   22   47 1
    47   23   24 ar
    48   23   26 1
    49   24   25 ar
    50   24   48 1
    51   25   49 1
    52   27   50 1
@<TRIPOS>MOLECULE
CHEMBL378029
   48    50     0     0     0
SMALL
USER_CHARGES

@<TRIPOS>ATOM
      1 C1          3.2319    1.4828   -0.9053 C.3       1 <0>         0.0843
      2 N1          3.2262    0.0178   -0.8997 N.am      1 <0>        -0.7011
      3 C2          2.2124   -0.6544   -1.4801 C.2       1 <0>         0.5116
      4 O1          1.3043   -0.0460   -2.0074 O.2       1 <0>        -0.5058
      5 C3          2.2066   -2.1478   -1.4744 C.2       1 <0>         0.5176
      6 O2          3.1607   -2.7566   -1.0364 O.2       1 <0>        -0.4968
      7 N2          1.1418   -2.8193   -1.9556 N.am      1 <0>        -0.5419
      8 C4          0.0343   -2.0885   -2.5767 C.3       1 <0>         0.0875
      9 C5          1.0943   -4.2043   -1.8628 C.ar      1 <0>         0.3884
     10 C6          1.5253   -4.9989   -2.9512 C.ar      1 <0>        -0.1158
     11 C7          2.0069   -4.4295   -4.1394 C.ar      1 <0>        -0.0392
     12 C8          2.4037   -5.2714   -5.1425 C.ar      1 <0>        -0.1549
     13 C9          2.3225   -6.6500   -4.9659 C.ar      1 <0>         0.1501
     14 N3          1.8708   -7.1766   -3.8515 N.ar      1 <0>        -0.4502
     15 C10         1.4699   -6.4090   -2.8393 C.ar      1 <0>         0.1261
     16 C11         0.9807   -6.9621   -1.6316 C.ar      1 <0>         0.1817
     17 C12         0.5802   -6.0997   -0.6188 C.ar      1 <0>         0.0409
     18 N4          0.6543   -4.7720   -0.7623 N.ar      1 <0>        -0.4411
     19 C13         0.0675   -6.6611    0.6460 C.2       1 <0>         0.5764
     20 O3         -0.0007   -7.8662    0.7928 O.2       1 <0>        -0.5106
     21 N5         -0.3251   -5.8380    1.6384 N.am      1 <0>        -0.7098
     22 C14        -0.8341   -6.3953    2.8940 C.3       1 <0>         0.1623
     23 C15        -1.2016   -5.2724    3.8296 C.ar      1 <0>        -0.1228
     24 C16        -0.2572   -4.7625    4.7010 C.ar      1 <0>        -0.0687
     25 C17        -0.5929   -3.7324    5.5590 C.ar      1 <0>        -0.1554
     26 C18        -1.8756   -3.2113    5.5457 C.ar      1 <0>         0.1085
     27 C19        -2.8206   -3.7228    4.6725 C.ar      1 <0>        -0.1552
     28 C20        -2.4811   -4.7493    3.8117 C.ar      1 <0>        -0.0685
     29 F1         -2.2050   -2.2046    6.3844 F         1 <0>        -0.1369
     30 O4          0.9043   -8.3055   -1.4669 O.3       1 <0>        -0.4477
     31 H1          3.2327    1.8422   -1.9343 H         1 <0>         0.0687
     32 H2          2.3437    1.8515   -0.3924 H         1 <0>         0.0687
     33 H3          4.1236    1.8446   -0.3934 H         1 <0>         0.0853
     34 H4          3.9520   -0.4684   -0.4782 H         1 <0>         0.4154
     35 H5          0.3883   -1.5914   -3.4798 H         1 <0>         0.0808
     36 H6         -0.7623   -2.7863   -2.8345 H         1 <0>         0.0749
     37 H7         -0.3469   -1.3439   -1.8778 H         1 <0>         0.0912
     38 H8          2.0626   -3.3576   -4.2591 H         1 <0>         0.1455
     39 H9          2.7793   -4.8667   -6.0707 H         1 <0>         0.1515
     40 H10         2.6387   -7.3027   -5.7662 H         1 <0>         0.1739
     41 H11        -0.2707   -4.8766    1.5213 H         1 <0>         0.4115
     42 H12        -1.7163   -7.0024    2.6909 H         1 <0>         0.0831
     43 H13        -0.0648   -7.0150    3.3547 H         1 <0>         0.0826
     44 H14         0.7431   -5.1694    4.7114 H         1 <0>         0.1357
     45 H15         0.1448   -3.3344    6.2399 H         1 <0>         0.1386
     46 H16        -3.8215   -3.3173    4.6615 H         1 <0>         0.1389
     47 H17        -3.2167   -5.1455    3.1274 H         1 <0>         0.1361
     48 H18         1.7018   -8.7016   -1.0900 H         1 <0>         0.4048
@<TRIPOS>BOND
     1    1    2 1
     2    1   31 1
     3    1   32 1
     4    1   33 1
     5    2    3 am
     6    2   34 1
     7    3    4 2
     8    3    5 1
     9    5    6 2
    10    5    7 am
    11    7    8 1
    12    7    9 1
    13    8   35 1
    14    8   36 1
    15    8   37 1
    16    9   18 ar
    17    9   10 ar
    18   10   15 ar
    19   10   11 ar
    20   11   12 ar
    21   11   38 1
    22   12   13 ar
    23   12   39 1
    24   13   14 ar
    25   13   40 1
    26   14   15 ar
    27   15   16 ar
    28   16   17 ar
    29   16   30 1
    30   17   18 ar
    31   17   19 1
    32   19   20 2
    33   19   21 am
    34   21   22 1
    35   21   41 1
    36   22   23 1
    37   22   42 1
    38   22   43 1
    39   23   28 ar
    40   23   24 ar
    41   24   25 ar
    42   24   44 1
    43   25   26 ar
    44   25   45 1
    45   26   27 ar
    46   26   29 1
    47   27   28 ar
    48   27   46 1
    49   28   47 1
    50   30   48 1
@<TRIPOS>MOLECULE
CHEMBL211028
   27    27     0     0     0
SMALL
USER_CHARGES

@<TRIPOS>ATOM
      1 C1         -0.0167    1.3780    0.0096 C.ar      1 <0>        -0.1001
      2 C2          1.1706    2.0863    0.0021 C.ar      1 <0>        -0.0956
      3 C3          2.3780    1.4119   -0.0130 C.ar      1 <0>        -0.0386
      4 C4          2.3968    0.0272   -0.0206 C.ar      1 <0>        -0.0276
      5 C5          1.2081   -0.6797   -0.0130 C.ar      1 <0>        -0.0970
      6 C6          0.0021   -0.0041    0.0020 C.ar      1 <0>        -0.0576
      7 C7         -1.2929   -0.7748    0.0107 C.3       1 <0>        -0.0761
      8 C8         -1.7454   -1.0279   -1.4288 C.3       1 <0>        -0.1648
      9 C9         -3.0403   -1.7987   -1.4201 C.2       1 <0>         0.3445
     10 O1         -3.5488   -2.1131   -0.3709 O.2       1 <0>        -0.4209
     11 C10        -3.7007   -2.1771   -2.7208 C.3       1 <0>        -0.2176
     12 C11        -4.9712   -2.9363   -2.4369 C.2       1 <0>         0.2891
     13 C12        -5.8164   -3.4266   -3.5664 C.2       1 <0>         0.4678
     14 O2         -6.8452   -4.0415   -3.3365 O.co2     1 <0>        -0.6526
     15 O3         -5.4782   -3.2124   -4.7194 O.co2     1 <0>        -0.6693
     16 O4         -5.3058   -3.1483   -1.2960 O.2       1 <0>        -0.4231
     17 Cl1         3.9115   -0.8207   -0.0401 Cl        1 <0>        -0.0510
     18 Cl2         3.8691    2.3008   -0.0231 Cl        1 <0>        -0.0539
     19 H1         -0.9593    1.9049    0.0259 H         1 <0>         0.1405
     20 H2          1.1552    3.1661    0.0076 H         1 <0>         0.1425
     21 H3          1.2220   -1.7596   -0.0193 H         1 <0>         0.1437
     22 H4         -1.1449   -1.7282    0.5180 H         1 <0>         0.0845
     23 H5         -2.0551   -0.1986    0.5352 H         1 <0>         0.0858
     24 H6         -1.8934   -0.0746   -1.9361 H         1 <0>         0.0993
     25 H7         -0.9831   -1.6041   -1.9533 H         1 <0>         0.0990
     26 H8         -3.9352   -1.2745   -3.2852 H         1 <0>         0.1245
     27 H9         -3.0250   -2.8041   -3.3024 H         1 <0>         0.1246
@<TRIPOS>BOND
     1    1    6 ar
     2    1    2 ar
     3    1   19 1
     4    2    3 ar
     5    2   20 1
     6    3    4 ar
     7    3   18 1
     8    4    5 ar
     9    4   17 1
    10    5    6 ar
    11    5   21 1
    12    6    7 1
    13    7    8 1
    14    7   22 1
    15    7   23 1
    16    8    9 1
    17    8   24 1
    18    8   25 1
    19    9   10 2
    20    9   11 1
    21   11   12 1
    22   11   26 1
    23   11   27 1
    24   12   13 1
    25   12   16 2
    26   13   14 2
    27   13   15 1
@<TRIPOS>MOLECULE
CHEMBL212000
   41    44     0     0     0
SMALL
USER_CHARGES

@<TRIPOS>ATOM
      1 C1         -0.0173    1.4248    0.0099 C.3       1 <0>         0.0307
      2 O1          0.0021   -0.0041    0.0020 O.3       1 <0>        -0.3216
      3 C2          0.6258   -0.6184    1.0415 C.ar      1 <0>         0.1559
      4 C3          2.0037   -0.9147    0.9628 C.ar      1 <0>        -0.0912
      5 C4          2.7536   -0.5840   -0.1799 C.ar      1 <0>        -0.0499
      6 C5          4.0834   -0.8978   -0.1927 C.ar      1 <0>        -0.1580
      7 C6          4.6585   -1.5283    0.9087 C.ar      1 <0>         0.1381
      8 N1          3.9553   -1.8349    1.9714 N.ar      1 <0>        -0.4523
      9 C7          2.6506   -1.5547    2.0470 C.ar      1 <0>         0.1128
     10 C8          1.9045   -1.8892    3.1967 C.ar      1 <0>         0.2202
     11 C9          0.5470   -1.5859    3.2476 C.ar      1 <0>        -0.1621
     12 C10        -0.0751   -0.9426    2.1589 C.ar      1 <0>        -0.0957
     13 C11        -1.5225   -0.7603    2.5478 C.3       1 <0>         0.3645
     14 N2         -1.6596   -1.3246    3.8947 N.am      1 <0>        -0.6266
     15 C12        -0.4699   -1.8073    4.2899 C.2       1 <0>         0.5761
     16 O2         -0.2586   -2.3379    5.3635 O.2       1 <0>        -0.4973
     17 C13        -2.8975   -1.3678    4.6770 C.3       1 <0>         0.1720
     18 C14        -3.6332   -2.6497    4.3827 C.ar      1 <0>        -0.1283
     19 C15        -4.5504   -2.6980    3.3495 C.ar      1 <0>        -0.0780
     20 C16        -5.2254   -3.8731    3.0784 C.ar      1 <0>        -0.1515
     21 C17        -4.9826   -5.0023    3.8420 C.ar      1 <0>         0.1073
     22 C18        -4.0637   -4.9526    4.8766 C.ar      1 <0>        -0.1521
     23 C19        -3.3862   -3.7779    5.1425 C.ar      1 <0>        -0.0636
     24 F1         -5.6422   -6.1514    3.5782 F         1 <0>        -0.1371
     25 O3         -2.3686   -1.4605    1.6335 O.3       1 <0>        -0.5411
     26 O4          2.5061   -2.5030    4.2455 O.3       1 <0>        -0.4626
     27 H1          1.0053    1.8021    0.0021 H         1 <0>         0.0503
     28 H2         -0.5445    1.7859   -0.8732 H         1 <0>         0.1032
     29 H3         -0.5275    1.7763    0.9067 H         1 <0>         0.0488
     30 H4          2.2908   -0.0956   -1.0247 H         1 <0>         0.1495
     31 H5          4.6876   -0.6578   -1.0551 H         1 <0>         0.1480
     32 H6          5.7107   -1.7709    0.8860 H         1 <0>         0.1697
     33 H7         -1.7770    0.2995    2.5580 H         1 <0>         0.0956
     34 H8         -2.6578   -1.3221    5.7393 H         1 <0>         0.1039
     35 H9         -3.5262   -0.5184    4.4095 H         1 <0>         0.0968
     36 H10        -4.7399   -1.8171    2.7542 H         1 <0>         0.1295
     37 H11        -5.9421   -3.9106    2.2714 H         1 <0>         0.1388
     38 H12        -3.8738   -5.8327    5.4731 H         1 <0>         0.1382
     39 H13        -2.6661   -3.7401    5.9465 H         1 <0>         0.1380
     40 H14        -3.3119   -1.3812    1.8310 H         1 <0>         0.3786
     41 H15         2.8701   -1.8934    4.9020 H         1 <0>         0.4022
@<TRIPOS>BOND
     1    1    2 1
     2    1   27 1
     3    1   28 1
     4    1   29 1
     5    2    3 1
     6    3   12 ar
     7    3    4 ar
     8    4    9 ar
     9    4    5 ar
    10    5    6 ar
    11    5   30 1
    12    6    7 ar
    13    6   31 1
    14    7    8 ar
    15    7   32 1
    16    8    9 ar
    17    9   10 ar
    18   10   11 ar
    19   10   26 1
    20   11   15 1
    21   11   12 ar
    22   12   13 1
    23   13   14 1
    24   13   25 1
    25   13   33 1
    26   14   15 am
    27   14   17 1
    28   15   16 2
    29   17   18 1
    30   17   34 1
    31   17   35 1
    32   18   23 ar
    33   18   19 ar
    34   19   20 ar
    35   19   36 1
    36   20   21 ar
    37   20   37 1
    38   21   22 ar
    39   21   24 1
    40   22   23 ar
    41   22   38 1
    42   23   39 1
    43   25   40 1
    44   26   41 1
@<TRIPOS>MOLECULE
CHEMBL212000__1
   40    43     0     0     0
SMALL
USER_CHARGES

@<TRIPOS>ATOM
      1 C1         -0.0173    1.4248    0.0099 C.3       1 <0>         0.0272
      2 O1          0.0021   -0.0041    0.0020 O.3       1 <0>        -0.3167
      3 C2         -1.2003   -0.6375    0.0101 C.ar      1 <0>        -0.0184
      4 C3         -1.8161   -0.9680    1.2365 C.ar      1 <0>        -0.0376
      5 C4         -1.2063   -0.6523    2.4637 C.ar      1 <0>        -0.0952
      6 C5         -1.8550   -0.9993    3.6152 C.ar      1 <0>        -0.1580
      7 C6         -3.0864   -1.6479    3.5499 C.ar      1 <0>         0.0583
      8 N1         -3.6505   -1.9404    2.4036 N.ar      1 <0>        -0.4168
      9 C7         -3.0683   -1.6278    1.2418 C.ar      1 <0>         0.0648
     10 C8         -3.6859   -1.9475    0.0143 C.ar      1 <0>         0.3600
     11 C9         -3.0564   -1.6104   -1.1805 C.ar      1 <0>        -0.3528
     12 C10        -1.8127   -0.9479   -1.1619 C.ar      1 <0>        -0.0069
     13 C11        -1.4290   -0.7307   -2.6059 C.3       1 <0>         0.3669
     14 N2         -2.5182   -1.2960   -3.4093 N.am      1 <0>        -0.6454
     15 C12        -3.4475   -1.8099   -2.5864 C.2       1 <0>         0.5880
     16 O2         -4.4746   -2.3493   -2.9508 O.2       1 <0>        -0.5292
     17 C13        -2.5764   -1.3109   -4.8730 C.3       1 <0>         0.1738
     18 C14        -1.9339   -2.5729   -5.3885 C.ar      1 <0>        -0.1133
     19 C15        -0.5800   -2.5946   -5.6671 C.ar      1 <0>        -0.0800
     20 C16         0.0104   -3.7514   -6.1394 C.ar      1 <0>        -0.1535
     21 C17        -0.7547   -4.8890   -6.3336 C.ar      1 <0>         0.0957
     22 C18        -2.1107   -4.8660   -6.0543 C.ar      1 <0>        -0.1527
     23 C19        -2.6978   -3.7096   -5.5770 C.ar      1 <0>        -0.0633
     24 F1         -0.1788   -6.0203   -6.7957 F         1 <0>        -0.1433
     25 O3         -0.2035   -1.4062   -2.8953 O.3       1 <0>        -0.5444
     26 O4         -4.8854   -2.5799   -0.0015 O.3       1 <0>        -0.6129
     27 H1          1.0053    1.8021    0.0021 H         1 <0>         0.0805
     28 H2         -0.5445    1.7859   -0.8732 H         1 <0>         0.0337
     29 H3         -0.5275    1.7763    0.9067 H         1 <0>         0.0363
     30 H4         -0.2510   -0.1494    2.4952 H         1 <0>         0.1298
     31 H5         -1.4137   -0.7715    4.5743 H         1 <0>         0.1251
     32 H6         -3.5887   -1.9167    4.4674 H         1 <0>         0.1467
     33 H7         -1.3271    0.3352   -2.8102 H         1 <0>         0.0760
     34 H8         -3.6169   -1.2750   -5.1957 H         1 <0>         0.0947
     35 H9         -2.0438   -0.4451   -5.2666 H         1 <0>         0.0841
     36 H10         0.0165   -1.7071   -5.5159 H         1 <0>         0.1282
     37 H11         1.0680   -3.7680   -6.3573 H         1 <0>         0.1342
     38 H12        -2.7085   -5.7526   -6.2057 H         1 <0>         0.1344
     39 H13        -3.7546   -3.6927   -5.3548 H         1 <0>         0.1387
     40 H14         0.0956   -1.3040   -3.8092 H         1 <0>         0.3634
@<TRIPOS>BOND
     1    1    2 1
     2    1   27 1
     3    1   28 1
     4    1   29 1
     5    2    3 1
     6    3   12 ar
     7    3    4 ar
     8    4    9 ar
     9    4    5 ar
    10    5    6 ar
    11    5   30 1
    12    6    7 ar
    13    6   31 1
    14    7    8 ar
    15    7   32 1
    16    8    9 ar
    17    9   10 ar
    18   10   11 ar
    19   10   26 1
    20   11   15 1
    21   11   12 ar
    22   12   13 1
    23   13   14 1
    24   13   25 1
    25   13   33 1
    26   14   15 am
    27   14   17 1
    28   15   16 2
    29   17   18 1
    30   17   34 1
    31   17   35 1
    32   18   23 ar
    33   18   19 ar
    34   19   20 ar
    35   19   36 1
    36   20   21 ar
    37   20   37 1
    38   21   22 ar
    39   21   24 1
    40   22   23 ar
    41   22   38 1
    42   23   39 1
    43   25   40 1
@<TRIPOS>MOLECULE
CHEMBL212000__2
   41    44     0     0     0
SMALL
USER_CHARGES

@<TRIPOS>ATOM
      1 C1         -0.0173    1.4248    0.0099 C.3       1 <0>         0.0313
      2 O1          0.0021   -0.0041    0.0020 O.3       1 <0>        -0.3281
      3 C2          0.6258   -0.6184    1.0415 C.ar      1 <0>         0.1541
      4 C3          2.0037   -0.9147    0.9628 C.ar      1 <0>        -0.0903
      5 C4          2.7536   -0.5840   -0.1799 C.ar      1 <0>        -0.0500
      6 C5          4.0834   -0.8978   -0.1927 C.ar      1 <0>        -0.1580
      7 C6          4.6585   -1.5283    0.9087 C.ar      1 <0>         0.1378
      8 N1          3.9553   -1.8349    1.9714 N.ar      1 <0>        -0.4523
      9 C7          2.6506   -1.5547    2.0470 C.ar      1 <0>         0.1122
     10 C8          1.9045   -1.8892    3.1967 C.ar      1 <0>         0.2200
     11 C9          0.5470   -1.5859    3.2476 C.ar      1 <0>        -0.1619
     12 C10        -0.0751   -0.9426    2.1589 C.ar      1 <0>        -0.0948
     13 C11        -1.5225   -0.7603    2.5478 C.3       1 <0>         0.3660
     14 N2         -1.6596   -1.3246    3.8947 N.am      1 <0>        -0.6261
     15 C12        -0.4699   -1.8073    4.2899 C.2       1 <0>         0.5761
     16 O2         -0.2586   -2.3379    5.3635 O.2       1 <0>        -0.4976
     17 C13        -2.8975   -1.3678    4.6770 C.3       1 <0>         0.1760
     18 C14        -3.6332   -2.6497    4.3827 C.ar      1 <0>        -0.1313
     19 C15        -4.5504   -2.6980    3.3495 C.ar      1 <0>        -0.0759
     20 C16        -5.2254   -3.8731    3.0784 C.ar      1 <0>        -0.1563
     21 C17        -4.9826   -5.0023    3.8420 C.ar      1 <0>         0.1077
     22 C18        -4.0637   -4.9526    4.8766 C.ar      1 <0>        -0.1539
     23 C19        -3.3862   -3.7779    5.1425 C.ar      1 <0>        -0.0632
     24 F1         -5.6422   -6.1514    3.5782 F         1 <0>        -0.1370
     25 O3         -1.8562    0.6291    2.5611 O.3       1 <0>        -0.5497
     26 O4          2.5061   -2.5030    4.2455 O.3       1 <0>        -0.4631
     27 H1          1.0053    1.8021    0.0021 H         1 <0>         0.0455
     28 H2         -0.5445    1.7859   -0.8732 H         1 <0>         0.0989
     29 H3         -0.5275    1.7763    0.9067 H         1 <0>         0.0652
     30 H4          2.2908   -0.0956   -1.0247 H         1 <0>         0.1494
     31 H5          4.6876   -0.6578   -1.0551 H         1 <0>         0.1479
     32 H6          5.7107   -1.7709    0.8860 H         1 <0>         0.1696
     33 H7         -2.1679   -1.2944    1.8504 H         1 <0>         0.0990
     34 H8         -2.6578   -1.3221    5.7393 H         1 <0>         0.1022
     35 H9         -3.5262   -0.5184    4.4095 H         1 <0>         0.0944
     36 H10        -4.7399   -1.8171    2.7542 H         1 <0>         0.1317
     37 H11        -5.9421   -3.9106    2.2714 H         1 <0>         0.1380
     38 H12        -3.8738   -5.8327    5.4731 H         1 <0>         0.1385
     39 H13        -2.6661   -3.7401    5.9465 H         1 <0>         0.1385
     40 H14        -2.7744    0.8108    2.8041 H         1 <0>         0.3865
     41 H15         2.8701   -1.8934    4.9020 H         1 <0>         0.4027
@<TRIPOS>BOND
     1    1    2 1
     2    1   27 1
     3    1   28 1
     4    1   29 1
     5    2    3 1
     6    3   12 ar
     7    3    4 ar
     8    4    9 ar
     9    4    5 ar
    10    5    6 ar
    11    5   30 1
    12    6    7 ar
    13    6   31 1
    14    7    8 ar
    15    7   32 1
    16    8    9 ar
    17    9   10 ar
    18   10   11 ar
    19   10   26 1
    20   11   15 1
    21   11   12 ar
    22   12   13 1
    23   13   14 1
    24   13   25 1
    25   13   33 1
    26   14   15 am
    27   14   17 1
    28   15   16 2
    29   17   18 1
    30   17   34 1
    31   17   35 1
    32   18   23 ar
    33   18   19 ar
    34   19   20 ar
    35   19   36 1
    36   20   21 ar
    37   20   37 1
    38   21   22 ar
    39   21   24 1
    40   22   23 ar
    41   22   38 1
    42   23   39 1
    43   25   40 1
    44   26   41 1
@<TRIPOS>MOLECULE
CHEMBL212000__3
   40    43     0     0     0
SMALL
USER_CHARGES

@<TRIPOS>ATOM
      1 C1         -0.0173    1.4248    0.0099 C.3       1 <0>         0.0278
      2 O1          0.0021   -0.0041    0.0020 O.3       1 <0>        -0.3239
      3 C2         -1.2003   -0.6375    0.0101 C.ar      1 <0>        -0.0190
      4 C3         -1.8161   -0.9680    1.2365 C.ar      1 <0>        -0.0373
      5 C4         -1.2063   -0.6523    2.4637 C.ar      1 <0>        -0.0951
      6 C5         -1.8550   -0.9993    3.6152 C.ar      1 <0>        -0.1582
      7 C6         -3.0864   -1.6479    3.5499 C.ar      1 <0>         0.0582
      8 N1         -3.6505   -1.9404    2.4036 N.ar      1 <0>        -0.4169
      9 C7         -3.0683   -1.6278    1.2418 C.ar      1 <0>         0.0645
     10 C8         -3.6859   -1.9475    0.0143 C.ar      1 <0>         0.3598
     11 C9         -3.0564   -1.6104   -1.1805 C.ar      1 <0>        -0.3528
     12 C10        -1.8127   -0.9479   -1.1619 C.ar      1 <0>        -0.0069
     13 C11        -1.4290   -0.7307   -2.6059 C.3       1 <0>         0.3682
     14 N2         -2.5182   -1.2960   -3.4093 N.am      1 <0>        -0.6449
     15 C12        -3.4475   -1.8099   -2.5864 C.2       1 <0>         0.5878
     16 O2         -4.4746   -2.3493   -2.9508 O.2       1 <0>        -0.5296
     17 C13        -2.5764   -1.3109   -4.8730 C.3       1 <0>         0.1774
     18 C14        -1.9339   -2.5729   -5.3885 C.ar      1 <0>        -0.1161
     19 C15        -0.5800   -2.5946   -5.6671 C.ar      1 <0>        -0.0791
     20 C16         0.0104   -3.7514   -6.1394 C.ar      1 <0>        -0.1579
     21 C17        -0.7547   -4.8890   -6.3336 C.ar      1 <0>         0.0961
     22 C18        -2.1107   -4.8660   -6.0543 C.ar      1 <0>        -0.1541
     23 C19        -2.6978   -3.7096   -5.5770 C.ar      1 <0>        -0.0628
     24 F1         -0.1788   -6.0203   -6.7957 F         1 <0>        -0.1431
     25 O3         -1.2955    0.6666   -2.8737 O.3       1 <0>        -0.5525
     26 O4         -4.8854   -2.5799   -0.0015 O.3       1 <0>        -0.6132
     27 H1          1.0053    1.8021    0.0021 H         1 <0>         0.0756
     28 H2         -0.5445    1.7859   -0.8732 H         1 <0>         0.0518
     29 H3         -0.5275    1.7763    0.9067 H         1 <0>         0.0314
     30 H4         -0.2510   -0.1494    2.4952 H         1 <0>         0.1298
     31 H5         -1.4137   -0.7715    4.5743 H         1 <0>         0.1249
     32 H6         -3.5887   -1.9167    4.4674 H         1 <0>         0.1467
     33 H7         -0.4942   -1.2460   -2.8267 H         1 <0>         0.0801
     34 H8         -3.6169   -1.2750   -5.1957 H         1 <0>         0.0931
     35 H9         -2.0438   -0.4451   -5.2666 H         1 <0>         0.0822
     36 H10         0.0165   -1.7071   -5.5159 H         1 <0>         0.1299
     37 H11         1.0680   -3.7680   -6.3573 H         1 <0>         0.1335
     38 H12        -2.7085   -5.7526   -6.2057 H         1 <0>         0.1349
     39 H13        -3.7546   -3.6927   -5.3548 H         1 <0>         0.1394
     40 H14        -1.0499    0.8704   -3.7865 H         1 <0>         0.3704
@<TRIPOS>BOND
     1    1    2 1
     2    1   27 1
     3    1   28 1
     4    1   29 1
     5    2    3 1
     6    3   12 ar
     7    3    4 ar
     8    4    9 ar
     9    4    5 ar
    10    5    6 ar
    11    5   30 1
    12    6    7 ar
    13    6   31 1
    14    7    8 ar
    15    7   32 1
    16    8    9 ar
    17    9   10 ar
    18   10   11 ar
    19   10   26 1
    20   11   15 1
    21   11   12 ar
    22   12   13 1
    23   13   14 1
    24   13   25 1
    25   13   33 1
    26   14   15 am
    27   14   17 1
    28   15   16 2
    29   17   18 1
    30   17   34 1
    31   17   35 1
    32   18   23 ar
    33   18   19 ar
    34   19   20 ar
    35   19   36 1
    36   20   21 ar
    37   20   37 1
    38   21   22 ar
    39   21   24 1
    40   22   23 ar
    41   22   38 1
    42   23   39 1
    43   25   40 1
@<TRIPOS>MOLECULE
CHEMBL1159988
   34    35     0     0     0
SMALL
USER_CHARGES

@<TRIPOS>ATOM
      1 C1         -0.0169    1.3941    0.0097 C.ar      1 <0>        -0.0350
      2 C2          1.1697    2.0941    0.0021 C.ar      1 <0>        -0.0773
      3 C3          2.3823    1.4214   -0.0136 C.ar      1 <0>        -0.1381
      4 C4          2.4090    0.0370   -0.0214 C.ar      1 <0>        -0.1493
      5 C5          1.2268   -0.6771   -0.0133 C.ar      1 <0>        -0.0546
      6 C6          0.0021   -0.0041    0.0020 C.ar      1 <0>        -0.0873
      7 C7         -1.2594   -0.7619    0.0105 C.2       1 <0>         0.3708
      8 C8         -2.5773   -0.0312    0.0274 C.3       1 <0>        -0.2147
      9 C9         -3.7056   -1.0302    0.0333 C.2       1 <0>         0.2918
     10 O1         -3.4644   -2.2136    0.0245 O.2       1 <0>        -0.4214
     11 C10        -5.1220   -0.5569    0.0499 C.2       1 <0>         0.4678
     12 O2         -6.0358   -1.3660    0.0546 O.co2     1 <0>        -0.6354
     13 O3         -5.3658    0.6389    0.0587 O.co2     1 <0>        -0.6645
     14 O4         -1.2384   -1.9743    0.0037 O.2       1 <0>        -0.3872
     15 C11         3.8437   -0.4464   -0.0386 C.3       1 <0>         0.1463
     16 C12         4.6764    0.7752   -0.4814 C.3       1 <0>        -0.1186
     17 C13         3.7980    1.9590   -0.0247 C.3       1 <0>         0.1546
     18 N1          4.1877    2.3922    1.3194 N.pl3     1 <0>        -0.3808
     19 N2          3.6759    3.2717    1.7969 N.1       1 <0>         0.2722
     20 N3          3.1751    4.1324    2.2642 N.1       1 <0>         0.2175
     21 N4          3.9993   -1.5425   -0.9981 N.pl3     1 <0>        -0.3755
     22 N5          3.4904   -2.5275   -0.8135 N.1       1 <0>         0.2663
     23 N6          2.9925   -3.4916   -0.6327 N.1       1 <0>         0.2253
     24 H1         -0.9582    1.9233    0.0260 H         1 <0>         0.1736
     25 H2          1.1554    3.1740    0.0081 H         1 <0>         0.1494
     26 H3          1.2488   -1.7569   -0.0196 H         1 <0>         0.1307
     27 H4         -2.6371    0.5896    0.9214 H         1 <0>         0.1336
     28 H5          4.1460   -0.7691    0.9577 H         1 <0>         0.1635
     29 H6          5.6412    0.7906    0.0255 H         1 <0>         0.1480
     30 H7          4.8060    0.7839   -1.5637 H         1 <0>         0.1587
     31 H8          3.8827    2.7866   -0.7290 H         1 <0>         0.1736
     32 H9          4.8874    1.9200    1.7973 H         1 <0>         0.4787
     33 H10         4.5414   -1.4181   -1.7928 H         1 <0>         0.4832
     34 H11        -2.6547    0.5991   -0.8584 H         1 <0>         0.1342
@<TRIPOS>BOND
     1    1    6 ar
     2    1    2 ar
     3    1   24 1
     4    2    3 ar
     5    2   25 1
     6    3   17 1
     7    3    4 ar
     8    4    5 ar
     9    4   15 1
    10    5    6 ar
    11    5   26 1
    12    6    7 1
    13    7    8 1
    14    7   14 2
    15    8    9 1
    16    8   27 1
    17    8   34 1
    18    9   10 2
    19    9   11 1
    20   11   12 2
    21   11   13 1
    22   15   16 1
    23   15   21 1
    24   15   28 1
    25   16   17 1
    26   16   29 1
    27   16   30 1
    28   17   18 1
    29   17   31 1
    30   18   19 2
    31   18   32 1
    32   19   20 2
    33   21   22 2
    34   21   33 1
    35   22   23 2
@<TRIPOS>MOLECULE
CHEMBL1159988__1
   34    35     0     0     0
SMALL
USER_CHARGES

@<TRIPOS>ATOM
      1 C1         -0.0169    1.3941    0.0097 C.ar      1 <0>        -0.0264
      2 C2          1.1697    2.0941    0.0021 C.ar      1 <0>        -0.0955
      3 C3          2.3823    1.4214   -0.0136 C.ar      1 <0>        -0.1264
      4 C4          2.4090    0.0370   -0.0214 C.ar      1 <0>        -0.1490
      5 C5          1.2268   -0.6771   -0.0133 C.ar      1 <0>        -0.0484
      6 C6          0.0021   -0.0041    0.0020 C.ar      1 <0>        -0.0928
      7 C7         -1.2594   -0.7619    0.0105 C.2       1 <0>         0.3715
      8 C8         -2.5773   -0.0312    0.0274 C.3       1 <0>        -0.2148
      9 C9         -3.7056   -1.0302    0.0333 C.2       1 <0>         0.2918
     10 O1         -3.4644   -2.2136    0.0245 O.2       1 <0>        -0.4209
     11 C10        -5.1220   -0.5569    0.0499 C.2       1 <0>         0.4679
     12 O2         -6.0358   -1.3660    0.0546 O.co2     1 <0>        -0.6353
     13 O3         -5.3658    0.6389    0.0587 O.co2     1 <0>        -0.6650
     14 O4         -1.2384   -1.9743    0.0037 O.2       1 <0>        -0.3871
     15 C11         3.8437   -0.4464   -0.0386 C.3       1 <0>         0.1618
     16 C12         4.6764    0.7752   -0.4814 C.3       1 <0>        -0.1242
     17 C13         3.7980    1.9590   -0.0247 C.3       1 <0>         0.1599
     18 N1          3.9119    3.0713   -0.9713 N.pl3     1 <0>        -0.3760
     19 N2          3.3662    4.0342   -0.7753 N.1       1 <0>         0.2709
     20 N3          2.8322    4.9765   -0.5834 N.1       1 <0>         0.2166
     21 N4          3.9993   -1.5425   -0.9981 N.pl3     1 <0>        -0.3789
     22 N5          3.4904   -2.5275   -0.8135 N.1       1 <0>         0.2664
     23 N6          2.9925   -3.4916   -0.6327 N.1       1 <0>         0.2269
     24 H1         -0.9582    1.9233    0.0260 H         1 <0>         0.1733
     25 H2          1.1554    3.1740    0.0081 H         1 <0>         0.1291
     26 H3          1.2488   -1.7569   -0.0196 H         1 <0>         0.1322
     27 H4         -2.6371    0.5896    0.9214 H         1 <0>         0.1342
     28 H5          4.1460   -0.7691    0.9577 H         1 <0>         0.1742
     29 H6          5.6412    0.7906    0.0255 H         1 <0>         0.1597
     30 H7          4.8060    0.7839   -1.5637 H         1 <0>         0.1333
     31 H8          4.0879    2.2813    0.9754 H         1 <0>         0.1757
     32 H9          4.4582    2.9768   -1.7672 H         1 <0>         0.4816
     33 H10         4.5414   -1.4181   -1.7928 H         1 <0>         0.4809
     34 H11        -2.6547    0.5991   -0.8584 H         1 <0>         0.1328
@<TRIPOS>BOND
     1    1    6 ar
     2    1    2 ar
     3    1   24 1
     4    2    3 ar
     5    2   25 1
     6    3   17 1
     7    3    4 ar
     8    4    5 ar
     9    4   15 1
    10    5    6 ar
    11    5   26 1
    12    6    7 1
    13    7    8 1
    14    7   14 2
    15    8    9 1
    16    8   27 1
    17    8   34 1
    18    9   10 2
    19    9   11 1
    20   11   12 2
    21   11   13 1
    22   15   16 1
    23   15   21 1
    24   15   28 1
    25   16   17 1
    26   16   29 1
    27   16   30 1
    28   17   18 1
    29   17   31 1
    30   18   19 2
    31   18   32 1
    32   19   20 2
    33   21   22 2
    34   21   33 1
    35   22   23 2
@<TRIPOS>MOLECULE
CHEMBL1159988__2
   34    35     0     0     0
SMALL
USER_CHARGES

@<TRIPOS>ATOM
      1 C1         -0.0169    1.3941    0.0097 C.ar      1 <0>        -0.0290
      2 C2          1.1697    2.0941    0.0021 C.ar      1 <0>        -0.0838
      3 C3          2.3823    1.4214   -0.0136 C.ar      1 <0>        -0.1347
      4 C4          2.4090    0.0370   -0.0214 C.ar      1 <0>        -0.1558
      5 C5          1.2268   -0.6771   -0.0133 C.ar      1 <0>        -0.0376
      6 C6          0.0021   -0.0041    0.0020 C.ar      1 <0>        -0.0940
      7 C7         -1.2594   -0.7619    0.0105 C.2       1 <0>         0.3699
      8 C8         -2.5773   -0.0312    0.0274 C.3       1 <0>        -0.2146
      9 C9         -3.7056   -1.0302    0.0333 C.2       1 <0>         0.2914
     10 O1         -3.4644   -2.2136    0.0245 O.2       1 <0>        -0.4207
     11 C10        -5.1220   -0.5569    0.0499 C.2       1 <0>         0.4678
     12 O2         -6.0358   -1.3660    0.0546 O.co2     1 <0>        -0.6354
     13 O3         -5.3658    0.6389    0.0587 O.co2     1 <0>        -0.6651
     14 O4         -1.2384   -1.9743    0.0037 O.2       1 <0>        -0.3842
     15 C11         3.8437   -0.4464   -0.0386 C.3       1 <0>         0.1373
     16 C12         4.6764    0.7752   -0.4814 C.3       1 <0>        -0.1057
     17 C13         3.7980    1.9590   -0.0247 C.3       1 <0>         0.1366
     18 N1          4.1877    2.3922    1.3194 N.pl3     1 <0>        -0.3900
     19 N2          3.6759    3.2717    1.7969 N.1       1 <0>         0.2699
     20 N3          3.1751    4.1324    2.2642 N.1       1 <0>         0.2268
     21 N4          4.2500   -0.8802    1.3004 N.pl3     1 <0>        -0.3915
     22 N5          3.7720   -1.7838    1.7676 N.1       1 <0>         0.2669
     23 N6          3.3042   -2.6682    2.2248 N.1       1 <0>         0.2331
     24 H1         -0.9582    1.9233    0.0260 H         1 <0>         0.1731
     25 H2          1.1554    3.1740    0.0081 H         1 <0>         0.1479
     26 H3          1.2488   -1.7569   -0.0196 H         1 <0>         0.1498
     27 H4         -2.6371    0.5896    0.9214 H         1 <0>         0.1320
     28 H5          3.9594   -1.2619   -0.7525 H         1 <0>         0.1749
     29 H6          5.6412    0.7906    0.0255 H         1 <0>         0.1361
     30 H7          4.8060    0.7839   -1.5637 H         1 <0>         0.1845
     31 H8          3.8827    2.7866   -0.7290 H         1 <0>         0.1761
     32 H9          4.8874    1.9200    1.7973 H         1 <0>         0.4674
     33 H10         4.9315   -0.3875    1.7838 H         1 <0>         0.4667
     34 H11        -2.6547    0.5991   -0.8584 H         1 <0>         0.1342
@<TRIPOS>BOND
     1    1    6 ar
     2    1    2 ar
     3    1   24 1
     4    2    3 ar
     5    2   25 1
     6    3   17 1
     7    3    4 ar
     8    4    5 ar
     9    4   15 1
    10    5    6 ar
    11    5   26 1
    12    6    7 1
    13    7    8 1
    14    7   14 2
    15    8    9 1
    16    8   27 1
    17    8   34 1
    18    9   10 2
    19    9   11 1
    20   11   12 2
    21   11   13 1
    22   15   16 1
    23   15   21 1
    24   15   28 1
    25   16   17 1
    26   16   29 1
    27   16   30 1
    28   17   18 1
    29   17   31 1
    30   18   19 2
    31   18   32 1
    32   19   20 2
    33   21   22 2
    34   21   33 1
    35   22   23 2
@<TRIPOS>MOLECULE
CHEMBL1159988__3
   34    35     0     0     0
SMALL
USER_CHARGES

@<TRIPOS>ATOM
      1 C1         -0.0169    1.3941    0.0097 C.ar      1 <0>        -0.0212
      2 C2          1.1697    2.0941    0.0021 C.ar      1 <0>        -0.1009
      3 C3          2.3823    1.4214   -0.0136 C.ar      1 <0>        -0.1268
      4 C4          2.4090    0.0370   -0.0214 C.ar      1 <0>        -0.1594
      5 C5          1.2268   -0.6771   -0.0133 C.ar      1 <0>        -0.0305
      6 C6          0.0021   -0.0041    0.0020 C.ar      1 <0>        -0.1003
      7 C7         -1.2594   -0.7619    0.0105 C.2       1 <0>         0.3707
      8 C8         -2.5773   -0.0312    0.0274 C.3       1 <0>        -0.2147
      9 C9         -3.7056   -1.0302    0.0333 C.2       1 <0>         0.2913
     10 O1         -3.4644   -2.2136    0.0245 O.2       1 <0>        -0.4202
     11 C10        -5.1220   -0.5569    0.0499 C.2       1 <0>         0.4679
     12 O2         -6.0358   -1.3660    0.0546 O.co2     1 <0>        -0.6354
     13 O3         -5.3658    0.6389    0.0587 O.co2     1 <0>        -0.6655
     14 O4         -1.2384   -1.9743    0.0037 O.2       1 <0>        -0.3843
     15 C11         3.8437   -0.4464   -0.0386 C.3       1 <0>         0.1555
     16 C12         4.6764    0.7752   -0.4814 C.3       1 <0>        -0.1181
     17 C13         3.7980    1.9590   -0.0247 C.3       1 <0>         0.1446
     18 N1          3.9119    3.0713   -0.9713 N.pl3     1 <0>        -0.3726
     19 N2          3.3662    4.0342   -0.7753 N.1       1 <0>         0.2708
     20 N3          2.8322    4.9765   -0.5834 N.1       1 <0>         0.2152
     21 N4          4.2500   -0.8802    1.3004 N.pl3     1 <0>        -0.3823
     22 N5          3.7720   -1.7838    1.7676 N.1       1 <0>         0.2692
     23 N6          3.3042   -2.6682    2.2248 N.1       1 <0>         0.2239
     24 H1         -0.9582    1.9233    0.0260 H         1 <0>         0.1726
     25 H2          1.1554    3.1740    0.0081 H         1 <0>         0.1276
     26 H3          1.2488   -1.7569   -0.0196 H         1 <0>         0.1513
     27 H4         -2.6371    0.5896    0.9214 H         1 <0>         0.1325
     28 H5          3.9594   -1.2619   -0.7525 H         1 <0>         0.1725
     29 H6          5.6412    0.7906    0.0255 H         1 <0>         0.1481
     30 H7          4.8060    0.7839   -1.5637 H         1 <0>         0.1585
     31 H8          4.0879    2.2813    0.9754 H         1 <0>         0.1652
     32 H9          4.4582    2.9768   -1.7672 H         1 <0>         0.4840
     33 H10         4.9315   -0.3875    1.7838 H         1 <0>         0.4780
     34 H11        -2.6547    0.5991   -0.8584 H         1 <0>         0.1327
@<TRIPOS>BOND
     1    1    6 ar
     2    1    2 ar
     3    1   24 1
     4    2    3 ar
     5    2   25 1
     6    3   17 1
     7    3    4 ar
     8    4    5 ar
     9    4   15 1
    10    5    6 ar
    11    5   26 1
    12    6    7 1
    13    7    8 1
    14    7   14 2
    15    8    9 1
    16    8   27 1
    17    8   34 1
    18    9   10 2
    19    9   11 1
    20   11   12 2
    21   11   13 1
    22   15   16 1
    23   15   21 1
    24   15   28 1
    25   16   17 1
    26   16   29 1
    27   16   30 1
    28   17   18 1
    29   17   31 1
    30   18   19 2
    31   18   32 1
    32   19   20 2
    33   21   22 2
    34   21   33 1
    35   22   23 2
@<TRIPOS>MOLECULE
CHEMBL339815
   48    50     0     0     0
SMALL
USER_CHARGES

@<TRIPOS>ATOM
      1 C1         -0.0166    1.3766    0.0096 C.ar      1 <0>        -0.1412
      2 C2          1.1659    2.0894    0.0021 C.ar      1 <0>        -0.0472
      3 C3          2.3905    1.4169   -0.0136 C.ar      1 <0>        -0.1705
      4 C4          2.4166    0.0238   -0.0213 C.ar      1 <0>        -0.0075
      5 C5          1.2196   -0.6892   -0.0132 C.ar      1 <0>        -0.1705
      6 C6          0.0021   -0.0041    0.0020 C.ar      1 <0>        -0.0472
      7 C7          1.2378   -2.1685   -0.0217 C.2       1 <0>         0.4248
      8 O1          2.2996   -2.7642   -0.0358 O.2       1 <0>        -0.4553
      9 C8          0.0192   -2.8924   -0.0135 C.2       1 <0>        -0.2429
     10 C9          0.0358   -4.2450   -0.0213 C.2       1 <0>         0.0048
     11 C10        -1.2269   -4.9950   -0.0128 C.ar      1 <0>        -0.0789
     12 C11        -1.2121   -6.3957   -0.0150 C.ar      1 <0>        -0.1008
     13 C12        -2.4021   -7.0947   -0.0065 C.ar      1 <0>         0.0785
     14 C13        -3.6158   -6.4068    0.0038 C.ar      1 <0>         0.0989
     15 C14        -3.6318   -5.0183    0.0060 C.ar      1 <0>        -0.1333
     16 C15        -2.4490   -4.3122    0.0034 C.ar      1 <0>        -0.0869
     17 O2         -4.7853   -7.0972    0.0113 O.3       1 <0>        -0.4863
     18 O3         -2.3916   -8.4546   -0.0086 O.3       1 <0>        -0.4854
     19 C16         3.6566    2.1823   -0.0225 C.2       1 <0>         0.4249
     20 O4          4.7229    1.5948   -0.0362 O.2       1 <0>        -0.4553
     21 C17         3.6281    3.5994   -0.0152 C.2       1 <0>        -0.2430
     22 C18         4.7858    4.2992   -0.0234 C.2       1 <0>         0.0048
     23 C19         4.7563    5.7676   -0.0157 C.ar      1 <0>        -0.0789
     24 C20         5.9537    6.4943   -0.0300 C.ar      1 <0>        -0.1008
     25 C21         5.9193    7.8741   -0.0233 C.ar      1 <0>         0.0785
     26 C22         4.6945    8.5418   -0.0017 C.ar      1 <0>         0.0989
     27 C23         3.5069    7.8224    0.0125 C.ar      1 <0>        -0.1333
     28 C24         3.5313    6.4452    0.0000 C.ar      1 <0>        -0.0869
     29 O5          4.6637    9.8995    0.0058 O.3       1 <0>        -0.4863
     30 O6          7.0797    8.5830   -0.0371 O.3       1 <0>        -0.4854
     31 H1         -0.9605    1.9013    0.0259 H         1 <0>         0.1377
     32 H2          1.1442    3.1692    0.0081 H         1 <0>         0.1365
     33 H3          3.3605   -0.5009   -0.0338 H         1 <0>         0.1457
     34 H4         -0.9265   -0.5556    0.0082 H         1 <0>         0.1365
     35 H5         -0.9227   -2.3640   -0.0010 H         1 <0>         0.1356
     36 H6          0.9776   -4.7734   -0.0339 H         1 <0>         0.1402
     37 H7         -0.2720   -6.9272   -0.0238 H         1 <0>         0.1415
     38 H8         -4.5740   -4.4906    0.0140 H         1 <0>         0.1399
     39 H9         -2.4645   -3.2323    0.0093 H         1 <0>         0.1371
     40 H10        -5.1173   -7.2988    0.8968 H         1 <0>         0.3920
     41 H11        -2.3815   -8.8492    0.8741 H         1 <0>         0.3904
     42 H12         2.6822    4.1204   -0.0030 H         1 <0>         0.1356
     43 H13         5.7317    3.7781   -0.0355 H         1 <0>         0.1402
     44 H14         6.9013    5.9764   -0.0460 H         1 <0>         0.1415
     45 H15         2.5614    8.3441    0.0291 H         1 <0>         0.1399
     46 H16         2.6060    5.8883    0.0069 H         1 <0>         0.1371
     47 H17         4.6417   10.2973   -0.8753 H         1 <0>         0.3921
     48 H18         7.4024    8.7920   -0.9244 H         1 <0>         0.3904
@<TRIPOS>BOND
     1    1    6 ar
     2    1    2 ar
     3    1   31 1
     4    2    3 ar
     5    2   32 1
     6    3    4 ar
     7    3   19 1
     8    4    5 ar
     9    4   33 1
    10    5    6 ar
    11    5    7 1
    12    6   34 1
    13    7    8 2
    14    7    9 1
    15    9   10 2
    16    9   35 1
    17   10   11 1
    18   10   36 1
    19   11   16 ar
    20   11   12 ar
    21   12   13 ar
    22   12   37 1
    23   13   14 ar
    24   13   18 1
    25   14   15 ar
    26   14   17 1
    27   15   16 ar
    28   15   38 1
    29   16   39 1
    30   17   40 1
    31   18   41 1
    32   19   20 2
    33   19   21 1
    34   21   22 2
    35   21   42 1
    36   22   23 1
    37   22   43 1
    38   23   28 ar
    39   23   24 ar
    40   24   25 ar
    41   24   44 1
    42   25   26 ar
    43   25   30 1
    44   26   27 ar
    45   26   29 1
    46   27   28 ar
    47   27   45 1
    48   28   46 1
    49   29   47 1
    50   30   48 1
@<TRIPOS>MOLECULE
CHEMBL108760
   25    26     0     0     0
SMALL
USER_CHARGES

@<TRIPOS>ATOM
      1 C1         -0.0167    1.3836    0.0096 C.ar      1 <0>        -0.0969
      2 C2          1.1594    2.1017    0.0023 C.ar      1 <0>        -0.1105
      3 C3          2.3803    1.4352   -0.0129 C.ar      1 <0>         0.0787
      4 C4          2.3973    0.0316   -0.0206 C.ar      1 <0>        -0.0521
      5 C5          1.2031   -0.6825   -0.0126 C.ar      1 <0>        -0.0544
      6 C6          0.0021   -0.0041    0.0020 C.ar      1 <0>        -0.0533
      7 Cl1        -1.4912   -0.8893    0.0120 Cl        1 <0>        -0.0720
      8 C7          3.8222   -0.3539   -0.0367 C.2       1 <0>        -0.2536
      9 C8          4.5389    0.8239   -0.0375 C.2       1 <0>         0.1345
     10 N1          3.6907    1.8696   -0.0235 N.pl3     1 <0>        -0.5702
     11 H1          3.9631    2.8006   -0.0212 H         1 <0>         0.4219
     12 C9          4.3477   -1.6700   -0.0482 C.2       1 <0>         0.4079
     13 C10         5.8391   -1.8857   -0.0641 C.3       1 <0>        -0.2116
     14 C11         6.1328   -3.3638   -0.0741 C.2       1 <0>         0.2897
     15 O1          5.2247   -4.1599   -0.0688 O.2       1 <0>        -0.4191
     16 C12         7.5469   -3.8441   -0.0905 C.2       1 <0>         0.4687
     17 O2          7.7848   -5.0411   -0.0986 O.co2     1 <0>        -0.6533
     18 O3          8.4646   -3.0395   -0.0959 O.co2     1 <0>        -0.6717
     19 O4          3.5965   -2.6236   -0.0452 O.2       1 <0>        -0.4307
     20 H2         -0.9621    1.9057    0.0260 H         1 <0>         0.1365
     21 H3          1.1333    3.1814    0.0079 H         1 <0>         0.1308
     22 H4          1.2164   -1.7624   -0.0189 H         1 <0>         0.1452
     23 H5          5.6164    0.8966   -0.0472 H         1 <0>         0.1934
     24 H6          6.2634   -1.4250   -0.9563 H         1 <0>         0.1212
     25 H7          6.2812   -1.4334    0.8236 H         1 <0>         0.1212
@<TRIPOS>BOND
     1    1    6 ar
     2    1    2 ar
     3    1   20 1
     4    2    3 ar
     5    2   21 1
     6    3   10 1
     7    3    4 ar
     8    4    5 ar
     9    4    8 1
    10    5    6 ar
    11    5   22 1
    12    6    7 1
    13    8    9 2
    14    8   12 1
    15    9   10 1
    16    9   23 1
    17   10   11 1
    18   12   13 1
    19   12   19 2
    20   13   14 1
    21   13   24 1
    22   13   25 1
    23   14   15 2
    24   14   16 1
    25   16   17 2
    26   16   18 1
@<TRIPOS>MOLECULE
CHEMBL129964
   41    42     0     0     0
SMALL
USER_CHARGES

@<TRIPOS>ATOM
      1 C1         -0.0169    1.3963    0.0097 C.ar      1 <0>        -0.0875
      2 C2          1.1666    2.1004    0.0022 C.ar      1 <0>        -0.1336
      3 C3          2.3804    1.4255   -0.0135 C.ar      1 <0>         0.0976
      4 C4          2.4081    0.0308   -0.0217 C.ar      1 <0>         0.0783
      5 C5          1.2272   -0.6835   -0.0143 C.ar      1 <0>        -0.1022
      6 C6          0.0021   -0.0041    0.0020 C.ar      1 <0>        -0.0779
      7 C7         -1.2576   -0.7575    0.0105 C.2       1 <0>        -0.0012
      8 C8         -2.4418   -0.0979    0.0258 C.2       1 <0>        -0.2450
      9 C9         -3.6500   -0.8205    0.0339 C.2       1 <0>         0.3744
     10 C10        -4.9665   -0.0872    0.0509 C.3       1 <0>        -0.2162
     11 C11        -6.0967   -1.0840    0.0568 C.2       1 <0>         0.3743
     12 O1         -5.8564   -2.2747    0.0480 O.2       1 <0>        -0.4246
     13 C12        -7.4310   -0.6353    0.0724 C.2       1 <0>        -0.2450
     14 C13        -8.4476   -1.5320    0.0777 C.2       1 <0>        -0.0012
     15 C14        -9.8388   -1.0641    0.0941 C.ar      1 <0>        -0.0778
     16 C15       -10.1183    0.3082    0.0984 C.ar      1 <0>        -0.0875
     17 C16       -11.4246    0.7441    0.1138 C.ar      1 <0>        -0.1336
     18 C17       -12.4669   -0.1738    0.1255 C.ar      1 <0>         0.0976
     19 C18       -12.1970   -1.5425    0.1212 C.ar      1 <0>         0.0783
     20 C19       -10.8911   -1.9889    0.0995 C.ar      1 <0>        -0.1024
     21 O2        -13.2210   -2.4373    0.1332 O.3       1 <0>        -0.4856
     22 O3        -13.7527    0.2624    0.1415 O.3       1 <0>        -0.4865
     23 O4         -3.6313   -2.0350    0.0272 O.2       1 <0>        -0.4245
     24 O5          3.5992   -0.6253   -0.0375 O.3       1 <0>        -0.4856
     25 O6          3.5439    2.1256   -0.0213 O.3       1 <0>        -0.4865
     26 H1         -0.9592    1.9238    0.0260 H         1 <0>         0.1382
     27 H2          1.1508    3.1802    0.0081 H         1 <0>         0.1396
     28 H3          1.2474   -1.7633   -0.0210 H         1 <0>         0.1408
     29 H4         -1.2410   -1.8373    0.0045 H         1 <0>         0.1386
     30 H5         -2.4584    0.9820    0.0317 H         1 <0>         0.1345
     31 H6         -5.0250    0.5337    0.9449 H         1 <0>         0.1283
     32 H7         -7.6446    0.4233    0.0802 H         1 <0>         0.1345
     33 H8         -8.2340   -2.5906    0.0699 H         1 <0>         0.1386
     34 H9         -9.3099    1.0243    0.0901 H         1 <0>         0.1382
     35 H10       -11.6391    1.8026    0.1171 H         1 <0>         0.1396
     36 H11       -10.6811   -3.0483    0.0914 H         1 <0>         0.1409
     37 H12       -13.5280   -2.6954   -0.7467 H         1 <0>         0.3901
     38 H13       -14.1358    0.3897   -0.7372 H         1 <0>         0.3918
     39 H14         3.9526   -0.8201    0.8413 H         1 <0>         0.3902
     40 H15         3.8897    2.3236    0.8598 H         1 <0>         0.3917
     41 H16        -5.0427    0.5432   -0.8350 H         1 <0>         0.1283
@<TRIPOS>BOND
     1    1    6 ar
     2    1    2 ar
     3    1   26 1
     4    2    3 ar
     5    2   27 1
     6    3    4 ar
     7    3   25 1
     8    4    5 ar
     9    4   24 1
    10    5    6 ar
    11    5   28 1
    12    6    7 1
    13    7    8 2
    14    7   29 1
    15    8    9 1
    16    8   30 1
    17    9   10 1
    18    9   23 2
    19   10   11 1
    20   10   31 1
    21   10   41 1
    22   11   12 2
    23   11   13 1
    24   13   14 2
    25   13   32 1
    26   14   15 1
    27   14   33 1
    28   15   20 ar
    29   15   16 ar
    30   16   17 ar
    31   16   34 1
    32   17   18 ar
    33   17   35 1
    34   18   19 ar
    35   18   22 1
    36   19   20 ar
    37   19   21 1
    38   20   36 1
    39   21   37 1
    40   22   38 1
    41   24   39 1
    42   25   40 1
@<TRIPOS>MOLECULE
CHEMBL175266
   29    31     0     0     0
SMALL
USER_CHARGES

@<TRIPOS>ATOM
      1 C1         -0.0184    1.5028    0.0103 C.3       1 <0>        -0.1362
      2 C2          0.0021   -0.0041    0.0020 C.2       1 <0>         0.0448
      3 C3         -1.1992   -0.7421    0.0037 C.ar      1 <0>        -0.1398
      4 C4         -2.4372   -0.0715    0.0129 C.ar      1 <0>        -0.0680
      5 C5         -3.5984   -0.7877    0.0140 C.ar      1 <0>         0.0659
      6 C6         -3.5656   -2.1885    0.0065 C.ar      1 <0>         0.1521
      7 C7         -2.3581   -2.8632   -0.0026 C.ar      1 <0>        -0.1528
      8 C8         -1.1641   -2.1530   -0.0044 C.ar      1 <0>         0.1542
      9 O1          0.0095   -2.8204   -0.0138 O.3       1 <0>        -0.2010
     10 C9          1.1871   -2.1653   -0.0156 C.2       1 <0>         0.1993
     11 C10         2.3824   -2.8537   -0.0261 C.2       1 <0>        -0.2952
     12 C11         3.5896   -2.1469   -0.0281 C.2       1 <0>         0.3888
     13 O2          4.6488   -2.7621   -0.0378 O.2       1 <0>        -0.4896
     14 C12         3.6055   -0.7323   -0.0196 C.2       1 <0>         0.0487
     15 C13         2.4486   -0.0222   -0.0088 C.2       1 <0>        -0.1197
     16 C14         1.2100   -0.7017   -0.0133 C.2       1 <0>        -0.1271
     17 O3          4.7959   -0.0749   -0.0218 O.3       1 <0>        -0.4622
     18 O4         -4.7279   -2.8888    0.0086 O.3       1 <0>        -0.4773
     19 O5         -4.7936   -0.1388    0.0229 O.3       1 <0>        -0.4801
     20 H1          1.0042    1.8801    0.0026 H         1 <0>         0.0889
     21 H2         -0.5455    1.8639   -0.8728 H         1 <0>         0.0931
     22 H3         -0.5286    1.8543    0.9071 H         1 <0>         0.0938
     23 H4         -2.4675    1.0080    0.0194 H         1 <0>         0.1548
     24 H5         -2.3435   -3.9431   -0.0080 H         1 <0>         0.1586
     25 H6          2.3862   -3.9337   -0.0323 H         1 <0>         0.1531
     26 H7          2.4750    1.0574   -0.0017 H         1 <0>         0.1508
     27 H8          5.5673   -0.6580   -0.0293 H         1 <0>         0.4081
     28 H9         -5.0691   -3.0872   -0.8742 H         1 <0>         0.4010
     29 H10        -5.1432    0.0538   -0.8579 H         1 <0>         0.3929
@<TRIPOS>BOND
     1    1    2 1
     2    1   20 1
     3    1   21 1
     4    1   22 1
     5    2   16 2
     6    2    3 1
     7    3    8 ar
     8    3    4 ar
     9    4    5 ar
    10    4   23 1
    11    5    6 ar
    12    5   19 1
    13    6    7 ar
    14    6   18 1
    15    7    8 ar
    16    7   24 1
    17    8    9 1
    18    9   10 1
    19   10   16 1
    20   10   11 2
    21   11   12 1
    22   11   25 1
    23   12   13 2
    24   12   14 1
    25   14   15 2
    26   14   17 1
    27   15   16 1
    28   15   26 1
    29   17   27 1
    30   18   28 1
    31   19   29 1
@<TRIPOS>MOLECULE
CHEMBL199874
   34    35     0     0     0
SMALL
USER_CHARGES

@<TRIPOS>ATOM
      1 C1         -0.0167    1.3781    0.0096 C.ar      1 <0>        -0.1069
      2 C2          1.1709    2.0855    0.0021 C.ar      1 <0>        -0.1221
      3 C3          2.3773    1.4107   -0.0130 C.ar      1 <0>        -0.0992
      4 C4          2.3960    0.0285   -0.0201 C.ar      1 <0>        -0.1276
      5 C5          1.2084   -0.6789   -0.0117 C.ar      1 <0>        -0.0891
      6 C6          0.0021   -0.0041    0.0020 C.ar      1 <0>        -0.1248
      7 C7          3.7112   -0.7071   -0.0376 C.3       1 <0>         0.1472
      8 N1          4.1518   -0.9524    1.3379 N.am      1 <0>        -0.5202
      9 C8          4.9243   -0.0276    1.9607 C.2       1 <0>         0.2357
     10 C9          5.3414   -0.2583    3.2621 C.2       1 <0>        -0.3274
     11 C10         4.9197   -1.5120    3.9121 C.2       1 <0>         0.5559
     12 O1          5.2568   -1.7652    5.0533 O.2       1 <0>        -0.4745
     13 N2          4.1505   -2.3726    3.2123 N.am      1 <0>        -0.6552
     14 H1          3.8620   -3.2032    3.6219 H         1 <0>         0.4335
     15 C11         3.7771   -2.0843    1.9540 C.2       1 <0>         0.7006
     16 O2          3.0805   -2.8777    1.3518 O.2       1 <0>        -0.5368
     17 C12         6.1752    0.7128    3.9689 C.2       1 <0>         0.4174
     18 C13         6.6160    0.4391    5.3838 C.3       1 <0>        -0.1939
     19 C14         7.4586    1.5865    5.8783 C.2       1 <0>         0.2899
     20 O3          7.6785    2.5293    5.1563 O.2       1 <0>        -0.4275
     21 C15         8.0217    1.5577    7.2613 C.2       1 <0>         0.4682
     22 O4          8.7040    2.4869    7.6618 O.co2     1 <0>        -0.6560
     23 O5          7.7994    0.6049    7.9910 O.co2     1 <0>        -0.6654
     24 O6          6.5123    1.7393    3.4161 O.2       1 <0>        -0.4309
     25 H2         -0.9591    1.9053    0.0259 H         1 <0>         0.1238
     26 H3          1.1563    3.1654    0.0076 H         1 <0>         0.1265
     27 H4          3.3051    1.9634   -0.0196 H         1 <0>         0.1264
     28 H5          1.2231   -1.7588   -0.0176 H         1 <0>         0.1314
     29 H6         -0.9258   -0.5567    0.0082 H         1 <0>         0.1244
     30 H7          3.5884   -1.6586   -0.5549 H         1 <0>         0.1168
     31 H8          4.4573   -0.1052   -0.5563 H         1 <0>         0.1113
     32 H9          5.2115    0.8785    1.4479 H         1 <0>         0.1914
     33 H10         5.7396    0.3301    6.0227 H         1 <0>         0.1285
     34 H11         7.2017   -0.4798    5.4105 H         1 <0>         0.1288
@<TRIPOS>BOND
     1    1    6 ar
     2    1    2 ar
     3    1   25 1
     4    2    3 ar
     5    2   26 1
     6    3    4 ar
     7    3   27 1
     8    4    5 ar
     9    4    7 1
    10    5    6 ar
    11    5   28 1
    12    6   29 1
    13    7    8 1
    14    7   30 1
    15    7   31 1
    16    8   15 am
    17    8    9 1
    18    9   10 2
    19    9   32 1
    20   10   11 1
    21   10   17 1
    22   11   12 2
    23   11   13 am
    24   13   14 1
    25   13   15 am
    26   15   16 2
    27   17   18 1
    28   17   24 2
    29   18   19 1
    30   18   33 1
    31   18   34 1
    32   19   20 2
    33   19   21 1
    34   21   22 2
    35   21   23 1
@<TRIPOS>MOLECULE
CHEMBL199874__1
   33    34     0     0     0
SMALL
USER_CHARGES

@<TRIPOS>ATOM
      1 C1         -0.0167    1.3781    0.0096 C.ar      1 <0>        -0.1212
      2 C2          1.1709    2.0855    0.0021 C.ar      1 <0>        -0.1272
      3 C3          2.3773    1.4107   -0.0130 C.ar      1 <0>        -0.1058
      4 C4          2.3960    0.0285   -0.0201 C.ar      1 <0>        -0.1027
      5 C5          1.2084   -0.6789   -0.0117 C.ar      1 <0>        -0.0864
      6 C6          0.0021   -0.0041    0.0020 C.ar      1 <0>        -0.1277
      7 C7          3.7112   -0.7071   -0.0376 C.3       1 <0>         0.1374
      8 N1          4.1518   -0.9524    1.3379 N.am      1 <0>        -0.5334
      9 C8          4.9192   -0.0359    1.9595 C.2       1 <0>         0.2012
     10 C9          5.3308   -0.2782    3.2633 C.2       1 <0>        -0.3394
     11 C10         4.9034   -1.5305    3.8977 C.2       1 <0>         0.4894
     12 O1          5.2717   -1.8215    5.1634 O.3       1 <0>        -0.6372
     13 N2          4.1498   -2.3685    3.2051 N.2       1 <0>        -0.6514
     14 C11         3.7788   -2.0836    1.9572 C.2       1 <0>         0.6460
     15 O2          3.0803   -2.8806    1.3550 O.2       1 <0>        -0.6035
     16 C12         6.1664    0.6863    3.9831 C.2       1 <0>         0.4185
     17 C13         6.5999    0.3997    5.3977 C.3       1 <0>        -0.1800
     18 C14         7.4441    1.5402    5.9052 C.2       1 <0>         0.2876
     19 O3          7.6704    2.4880    5.1918 O.2       1 <0>        -0.4373
     20 C15         8.0009    1.4983    7.2904 C.2       1 <0>         0.4677
     21 O4          8.6846    2.4220    7.7015 O.co2     1 <0>        -0.6719
     22 O5          7.7722    0.5405    8.0113 O.co2     1 <0>        -0.6636
     23 O6          6.5094    1.7158    3.4403 O.2       1 <0>        -0.4716
     24 H1         -0.9591    1.9053    0.0259 H         1 <0>         0.1168
     25 H2          1.1563    3.1654    0.0076 H         1 <0>         0.1196
     26 H3          3.3051    1.9634   -0.0196 H         1 <0>         0.1216
     27 H4          1.2231   -1.7588   -0.0176 H         1 <0>         0.1333
     28 H5         -0.9258   -0.5567    0.0082 H         1 <0>         0.1192
     29 H6          3.5884   -1.6586   -0.5549 H         1 <0>         0.1038
     30 H7          4.4573   -0.1052   -0.5563 H         1 <0>         0.0859
     31 H8          5.2096    0.8721    1.4520 H         1 <0>         0.1567
     32 H9          5.7203    0.2885    6.0317 H         1 <0>         0.1277
     33 H10         7.1824   -0.5214    5.4196 H         1 <0>         0.1281
@<TRIPOS>BOND
     1    1    6 ar
     2    1    2 ar
     3    1   24 1
     4    2    3 ar
     5    2   25 1
     6    3    4 ar
     7    3   26 1
     8    4    5 ar
     9    4    7 1
    10    5    6 ar
    11    5   27 1
    12    6   28 1
    13    7    8 1
    14    7   29 1
    15    7   30 1
    16    8   14 am
    17    8    9 1
    18    9   10 2
    19    9   31 1
    20   10   11 1
    21   10   16 1
    22   11   12 1
    23   11   13 2
    24   13   14 1
    25   14   15 2
    26   16   17 1
    27   16   23 2
    28   17   18 1
    29   17   32 1
    30   17   33 1
    31   18   19 2
    32   18   20 1
    33   20   21 2
    34   20   22 1
@<TRIPOS>MOLECULE
CHEMBL35842
   43    46     0     0     0
SMALL
USER_CHARGES

@<TRIPOS>ATOM
      1 C1          0.2278    1.8524    0.4191 C.ar      1 <0>        -0.1230
      2 C2          1.4856    2.4114    0.2904 C.ar      1 <0>        -0.1174
      3 C3          2.5934    1.5961    0.1528 C.ar      1 <0>        -0.1143
      4 C4          2.4436    0.2219    0.1444 C.ar      1 <0>        -0.0780
      5 C5          1.1859   -0.3370    0.2740 C.ar      1 <0>        -0.1146
      6 C6          0.0779    0.4783    0.4102 C.ar      1 <0>        -0.1172
      7 C7          3.6512   -0.6668   -0.0066 C.3       1 <0>        -0.0429
      8 C8          4.2112   -0.9889    1.3549 C.ar      1 <0>        -0.0890
      9 C9          5.1688   -0.1648    1.9202 C.ar      1 <0>        -0.0779
     10 C10         5.6880   -0.4528    3.1699 C.ar      1 <0>        -0.1295
     11 C11         5.2538   -1.5649    3.8611 C.ar      1 <0>        -0.0616
     12 C12         4.2880   -2.4006    3.2968 C.ar      1 <0>        -0.1580
     13 C13         3.7643   -2.1010    2.0371 C.ar      1 <0>        -0.0504
     14 C14         3.8179   -3.5939    4.0315 C.2       1 <0>         0.4543
     15 O1          4.1973   -3.7961    5.1691 O.2       1 <0>        -0.4373
     16 C15         2.8898   -4.5381    3.3858 C.ar      1 <0>        -0.1607
     17 C16         1.5288   -4.5378    3.7460 C.ar      1 <0>        -0.0730
     18 C17         0.6563   -5.3977    3.1646 C.ar      1 <0>        -0.1009
     19 C18         1.1032   -6.3074    2.1878 C.ar      1 <0>        -0.0805
     20 C19         0.2133   -7.2078    1.5725 C.ar      1 <0>        -0.0608
     21 C20         0.7097   -8.0650    0.6318 C.ar      1 <0>        -0.1632
     22 C21         2.0643   -8.0307    0.3063 C.ar      1 <0>         0.1303
     23 N1          2.8892   -7.1907    0.8822 N.ar      1 <0>        -0.4574
     24 C22         2.4668   -6.3266    1.8092 C.ar      1 <0>         0.0997
     25 C23         3.3635   -5.4219    2.4185 C.ar      1 <0>         0.1756
     26 O2          4.6724   -5.4169    2.0698 O.3       1 <0>        -0.4727
     27 H1         -0.6372    2.4893    0.5311 H         1 <0>         0.1213
     28 H2          1.6026    3.4850    0.2970 H         1 <0>         0.1222
     29 H3          3.5760    2.0328    0.0516 H         1 <0>         0.1210
     30 H4          1.0688   -1.4106    0.2670 H         1 <0>         0.1191
     31 H5         -0.9047    0.0416    0.5110 H         1 <0>         0.1216
     32 H6          3.3622   -1.5903   -0.5084 H         1 <0>         0.0840
     33 H7          4.4085   -0.1532   -0.5988 H         1 <0>         0.0860
     34 H8          5.5125    0.7069    1.3831 H         1 <0>         0.1274
     35 H9          6.4352    0.1942    3.6050 H         1 <0>         0.1313
     36 H10         5.6601   -1.7888    4.8364 H         1 <0>         0.1336
     37 H11         3.0138   -2.7407    1.5968 H         1 <0>         0.1256
     38 H12         1.1754   -3.8444    4.4948 H         1 <0>         0.1371
     39 H13        -0.3847   -5.3847    3.4520 H         1 <0>         0.1404
     40 H14        -0.8337   -7.2209    1.8373 H         1 <0>         0.1446
     41 H15         0.0533   -8.7686    0.1412 H         1 <0>         0.1427
     42 H16         2.4440   -8.7138   -0.4392 H         1 <0>         0.1642
     43 H17         5.2221   -6.0126    2.5972 H         1 <0>         0.3982
@<TRIPOS>BOND
     1    1    6 ar
     2    1    2 ar
     3    1   27 1
     4    2    3 ar
     5    2   28 1
     6    3    4 ar
     7    3   29 1
     8    4    5 ar
     9    4    7 1
    10    5    6 ar
    11    5   30 1
    12    6   31 1
    13    7    8 1
    14    7   32 1
    15    7   33 1
    16    8   13 ar
    17    8    9 ar
    18    9   10 ar
    19    9   34 1
    20   10   11 ar
    21   10   35 1
    22   11   12 ar
    23   11   36 1
    24   12   13 ar
    25   12   14 1
    26   13   37 1
    27   14   15 2
    28   14   16 1
    29   16   25 ar
    30   16   17 ar
    31   17   18 ar
    32   17   38 1
    33   18   19 ar
    34   18   39 1
    35   19   24 ar
    36   19   20 ar
    37   20   21 ar
    38   20   40 1
    39   21   22 ar
    40   21   41 1
    41   22   23 ar
    42   22   42 1
    43   23   24 ar
    44   24   25 ar
    45   25   26 1
    46   26   43 1
@<TRIPOS>MOLECULE
CHEMBL35842__1
   42    45     0     0     0
SMALL
USER_CHARGES

@<TRIPOS>ATOM
      1 C1         -0.3625    1.1414    0.0689 C.ar      1 <0>        -0.1284
      2 C2          0.7541    1.9549    0.1171 C.ar      1 <0>        -0.1208
      3 C3          2.0179    1.3949    0.1134 C.ar      1 <0>        -0.1154
      4 C4          2.1652    0.0214    0.0619 C.ar      1 <0>        -0.0704
      5 C5          1.0486   -0.7922    0.0146 C.ar      1 <0>        -0.1131
      6 C6         -0.2152   -0.2321    0.0169 C.ar      1 <0>        -0.1181
      7 C7          3.5430   -0.5890    0.0569 C.3       1 <0>        -0.0391
      8 C8          3.9830   -0.8477    1.4749 C.ar      1 <0>        -0.1016
      9 C9          4.6652    0.1316    2.1757 C.ar      1 <0>        -0.0951
     10 C10         5.0724   -0.0974    3.4780 C.ar      1 <0>        -0.1364
     11 C11         4.8006   -1.3050    4.0869 C.ar      1 <0>        -0.0499
     12 C12         4.1127   -2.2975    3.3857 C.ar      1 <0>        -0.1328
     13 C13         3.7000   -2.0577    2.0731 C.ar      1 <0>        -0.0641
     14 C14         3.8179   -3.5939    4.0315 C.2       1 <0>         0.4905
     15 O1          3.1341   -4.4184    3.4557 O.2       1 <0>        -0.4794
     16 C15         4.3523   -3.8871    5.3725 C.ar      1 <0>        -0.3705
     17 C16         3.5001   -3.8341    6.4919 C.ar      1 <0>         0.0101
     18 C17         3.9699   -4.1007    7.7357 C.ar      1 <0>        -0.2708
     19 C18         5.3242   -4.4354    7.9245 C.ar      1 <0>        -0.0257
     20 C19         5.8310   -4.7156    9.2074 C.ar      1 <0>        -0.1130
     21 C20         7.1544   -5.0343    9.3234 C.ar      1 <0>        -0.1587
     22 C21         7.9614   -5.0747    8.1880 C.ar      1 <0>         0.0429
     23 N1          7.4850   -4.8126    6.9955 N.ar      1 <0>        -0.4162
     24 C22         6.2002   -4.4950    6.8144 C.ar      1 <0>         0.0383
     25 C23         5.6965   -4.2207    5.5241 C.ar      1 <0>         0.3410
     26 O2          6.5133   -4.2760    4.4450 O.3       1 <0>        -0.6494
     27 H1         -1.3500    1.5787    0.0763 H         1 <0>         0.1180
     28 H2          0.6390    3.0280    0.1573 H         1 <0>         0.1190
     29 H3          2.8903    2.0306    0.1504 H         1 <0>         0.1200
     30 H4          1.1637   -1.8652   -0.0259 H         1 <0>         0.1225
     31 H5         -1.0875   -0.8678   -0.0204 H         1 <0>         0.1202
     32 H6          3.5219   -1.5292   -0.4942 H         1 <0>         0.0820
     33 H7          4.2425    0.0968   -0.4211 H         1 <0>         0.0811
     34 H8          4.8810    1.0787    1.7037 H         1 <0>         0.1180
     35 H9          5.6047    0.6710    4.0190 H         1 <0>         0.1225
     36 H10         5.1193   -1.4826    5.1034 H         1 <0>         0.1303
     37 H11         3.1637   -2.8193    1.5266 H         1 <0>         0.1260
     38 H12         2.4595   -3.5777    6.3584 H         1 <0>         0.0990
     39 H13         3.3032   -4.0558    8.5841 H         1 <0>         0.1053
     40 H14         5.1911   -4.6793   10.0766 H         1 <0>         0.1221
     41 H15         7.5746   -5.2543   10.2936 H         1 <0>         0.1192
     42 H16         9.0060   -5.3280    8.2934 H         1 <0>         0.1408
@<TRIPOS>BOND
     1    1    6 ar
     2    1    2 ar
     3    1   27 1
     4    2    3 ar
     5    2   28 1
     6    3    4 ar
     7    3   29 1
     8    4    5 ar
     9    4    7 1
    10    5    6 ar
    11    5   30 1
    12    6   31 1
    13    7    8 1
    14    7   32 1
    15    7   33 1
    16    8   13 ar
    17    8    9 ar
    18    9   10 ar
    19    9   34 1
    20   10   11 ar
    21   10   35 1
    22   11   12 ar
    23   11   36 1
    24   12   13 ar
    25   12   14 1
    26   13   37 1
    27   14   15 2
    28   14   16 1
    29   16   25 ar
    30   16   17 ar
    31   17   18 ar
    32   17   38 1
    33   18   19 ar
    34   18   39 1
    35   19   24 ar
    36   19   20 ar
    37   20   21 ar
    38   20   40 1
    39   21   22 ar
    40   21   41 1
    41   22   23 ar
    42   22   42 1
    43   23   24 ar
    44   24   25 ar
    45   25   26 1
@<TRIPOS>MOLECULE
CHEMBL431948
   60    62     0     0     0
SMALL
USER_CHARGES

@<TRIPOS>ATOM
      1 C1         -0.0292    1.6512    0.8694 C.ar      1 <0>        -0.0568
      2 C2          1.0879    2.4013    1.1653 C.ar      1 <0>        -0.1308
      3 C3          1.9944    2.7275    0.1656 C.ar      1 <0>         0.0865
      4 C4          1.7790    2.2981   -1.1440 C.ar      1 <0>         0.0734
      5 C5          0.6625    1.5462   -1.4495 C.ar      1 <0>        -0.1100
      6 C6         -0.2521    1.2162   -0.4418 C.ar      1 <0>        -0.0508
      7 C7         -1.4425    0.4156   -0.7604 C.2       1 <0>        -0.0198
      8 C8         -2.6578    0.8070   -0.3188 C.2       1 <0>        -0.1785
      9 C9         -2.8503    2.1329    0.1450 C.2       1 <0>         0.4815
     10 O1         -1.9573    2.9515    0.0346 O.2       1 <0>        -0.4840
     11 O2         -4.0241    2.4867    0.7087 O.3       1 <0>        -0.3134
     12 C10        -4.1486    3.8390    1.1534 C.3       1 <0>         0.1084
     13 C11        -5.1033    3.8972    2.3476 C.3       1 <0>        -0.0902
     14 C12        -6.4769    3.3696    1.9287 C.3       1 <0>         0.0663
     15 C13        -7.0293    4.2316    0.7917 C.3       1 <0>        -0.1249
     16 C14        -6.0746    4.1734   -0.4025 C.3       1 <0>         0.0834
     17 C15        -4.7010    4.7010    0.0165 C.3       1 <0>         0.0574
     18 O3         -3.8093    4.6466   -1.0989 O.3       1 <0>        -0.5498
     19 O4         -6.5905    4.9785   -1.4645 O.3       1 <0>        -0.5603
     20 C16        -7.4173    3.4270    3.1049 C.2       1 <0>         0.4974
     21 O5         -7.6623    4.4958    3.6379 O.co2     1 <0>        -0.6876
     22 O6         -7.9330    2.4046    3.5235 O.co2     1 <0>        -0.6663
     23 O7         -6.3524    2.0173    1.4839 O.3       1 <0>        -0.3205
     24 C17        -7.4810    1.4001    1.0763 C.2       1 <0>         0.4848
     25 O8         -8.5417    1.9953    1.0984 O.2       1 <0>        -0.4709
     26 C18        -7.4305    0.0580    0.6222 C.2       1 <0>        -0.1640
     27 C19        -8.5324   -0.5183    0.0942 C.2       1 <0>        -0.0361
     28 C20        -9.6704    0.3143   -0.3198 C.ar      1 <0>        -0.0440
     29 C21        -9.4563    1.4619   -1.0921 C.ar      1 <0>        -0.0509
     30 C22       -10.5247    2.2405   -1.4787 C.ar      1 <0>        -0.1303
     31 C23       -11.8152    1.8902   -1.1042 C.ar      1 <0>         0.0836
     32 C24       -12.0369    0.7485   -0.3349 C.ar      1 <0>         0.0727
     33 C25       -10.9723   -0.0411    0.0523 C.ar      1 <0>        -0.1111
     34 O9        -13.3025    0.4094    0.0294 O.3       1 <0>        -0.4863
     35 O10       -12.8647    2.6622   -1.4881 O.3       1 <0>        -0.4869
     36 O11         2.6692    2.6208   -2.1201 O.3       1 <0>        -0.4877
     37 O12         3.0937    3.4672    0.4635 O.3       1 <0>        -0.4880
     38 H1         -0.7303    1.3952    1.6500 H         1 <0>         0.1237
     39 H2          1.2588    2.7367    2.1776 H         1 <0>         0.1323
     40 H3          0.4948    1.2132   -2.4631 H         1 <0>         0.1322
     41 H4         -1.3458   -0.4857   -1.3475 H         1 <0>         0.1459
     42 H5         -3.4827    0.1098   -0.3189 H         1 <0>         0.1465
     43 H6         -3.1700    4.2149    1.4519 H         1 <0>         0.0894
     44 H7         -4.7098    3.2831    3.1576 H         1 <0>         0.0851
     45 H8         -5.1983    4.9287    2.6869 H         1 <0>         0.1089
     46 H9         -8.0079    3.8557    0.4932 H         1 <0>         0.0974
     47 H10        -7.1243    5.2631    1.1309 H         1 <0>         0.0822
     48 H11        -5.9796    3.1419   -0.7418 H         1 <0>         0.0649
     49 H12        -4.7960    5.7325    0.3557 H         1 <0>         0.0754
     50 H13        -4.0971    5.1715   -1.8584 H         1 <0>         0.3687
     51 H14        -6.0351    4.9885   -2.2560 H         1 <0>         0.3655
     52 H15        -6.5112   -0.5037    0.6985 H         1 <0>         0.1388
     53 H16        -8.5770   -1.5910   -0.0237 H         1 <0>         0.1423
     54 H17        -8.4536    1.7369   -1.3845 H         1 <0>         0.1195
     55 H18       -10.3582    3.1259   -2.0742 H         1 <0>         0.1303
     56 H19       -11.1431   -0.9280    0.6444 H         1 <0>         0.1314
     57 H20       -13.7519   -0.1689   -0.6020 H         1 <0>         0.3785
     58 H21       -13.2521    2.4058   -2.3362 H         1 <0>         0.3796
     59 H22         3.3792    1.9744   -2.2343 H         1 <0>         0.3823
     60 H23         3.8643    2.9415    0.7184 H         1 <0>         0.3837
@<TRIPOS>BOND
     1    1    6 ar
     2    1    2 ar
     3    1   38 1
     4    2    3 ar
     5    2   39 1
     6    3    4 ar
     7    3   37 1
     8    4    5 ar
     9    4   36 1
    10    5    6 ar
    11    5   40 1
    12    6    7 1
    13    7    8 2
    14    7   41 1
    15    8    9 1
    16    8   42 1
    17    9   10 2
    18    9   11 1
    19   11   12 1
    20   12   17 1
    21   12   13 1
    22   12   43 1
    23   13   14 1
    24   13   44 1
    25   13   45 1
    26   14   15 1
    27   14   20 1
    28   14   23 1
    29   15   16 1
    30   15   46 1
    31   15   47 1
    32   16   17 1
    33   16   19 1
    34   16   48 1
    35   17   18 1
    36   17   49 1
    37   18   50 1
    38   19   51 1
    39   20   21 2
    40   20   22 1
    41   23   24 1
    42   24   25 2
    43   24   26 1
    44   26   27 2
    45   26   52 1
    46   27   28 1
    47   27   53 1
    48   28   33 ar
    49   28   29 ar
    50   29   30 ar
    51   29   54 1
    52   30   31 ar
    53   30   55 1
    54   31   32 ar
    55   31   35 1
    56   32   33 ar
    57   32   34 1
    58   33   56 1
    59   34   57 1
    60   35   58 1
    61   36   59 1
    62   37   60 1
@<TRIPOS>MOLECULE
CHEMBL431948__1
   60    62     0     0     0
SMALL
USER_CHARGES

@<TRIPOS>ATOM
      1 C1         -0.0292    1.6512    0.8694 C.ar      1 <0>        -0.0561
      2 C2          1.0879    2.4013    1.1653 C.ar      1 <0>        -0.1306
      3 C3          1.9944    2.7275    0.1656 C.ar      1 <0>         0.0889
      4 C4          1.7790    2.2981   -1.1440 C.ar      1 <0>         0.0729
      5 C5          0.6625    1.5462   -1.4495 C.ar      1 <0>        -0.1098
      6 C6         -0.2521    1.2162   -0.4418 C.ar      1 <0>        -0.0574
      7 C7         -1.4425    0.4156   -0.7604 C.2       1 <0>        -0.0103
      8 C8         -2.6578    0.8070   -0.3188 C.2       1 <0>        -0.1858
      9 C9         -2.8503    2.1329    0.1450 C.2       1 <0>         0.4785
     10 O1         -1.9573    2.9515    0.0346 O.2       1 <0>        -0.5003
     11 O2         -4.0241    2.4867    0.7087 O.3       1 <0>        -0.3093
     12 C10        -4.1486    3.8390    1.1534 C.3       1 <0>         0.1037
     13 C11        -5.1033    3.8972    2.3476 C.3       1 <0>        -0.0833
     14 C12        -6.4769    3.3696    1.9287 C.3       1 <0>         0.0679
     15 C13        -7.0293    4.2316    0.7917 C.3       1 <0>        -0.1177
     16 C14        -6.0746    4.1734   -0.4025 C.3       1 <0>         0.0790
     17 C15        -4.7010    4.7010    0.0165 C.3       1 <0>         0.0672
     18 O3         -4.8255    6.0533    0.4612 O.3       1 <0>        -0.5447
     19 O4         -6.5905    4.9785   -1.4645 O.3       1 <0>        -0.5606
     20 C16        -7.4173    3.4270    3.1049 C.2       1 <0>         0.4975
     21 O5         -7.6623    4.4958    3.6379 O.co2     1 <0>        -0.6860
     22 O6         -7.9330    2.4046    3.5235 O.co2     1 <0>        -0.6695
     23 O7         -6.3524    2.0173    1.4839 O.3       1 <0>        -0.3242
     24 C17        -7.4810    1.4001    1.0763 C.2       1 <0>         0.4834
     25 O8         -8.5417    1.9953    1.0984 O.2       1 <0>        -0.4699
     26 C18        -7.4305    0.0580    0.6222 C.2       1 <0>        -0.1639
     27 C19        -8.5324   -0.5183    0.0942 C.2       1 <0>        -0.0367
     28 C20        -9.6704    0.3143   -0.3198 C.ar      1 <0>        -0.0440
     29 C21        -9.4563    1.4619   -1.0921 C.ar      1 <0>        -0.0508
     30 C22       -10.5247    2.2405   -1.4787 C.ar      1 <0>        -0.1302
     31 C23       -11.8152    1.8902   -1.1042 C.ar      1 <0>         0.0836
     32 C24       -12.0369    0.7485   -0.3349 C.ar      1 <0>         0.0727
     33 C25       -10.9723   -0.0411    0.0523 C.ar      1 <0>        -0.1112
     34 O9        -13.3025    0.4094    0.0294 O.3       1 <0>        -0.4862
     35 O10       -12.8647    2.6622   -1.4881 O.3       1 <0>        -0.4868
     36 O11         2.6692    2.6208   -2.1201 O.3       1 <0>        -0.4874
     37 O12         3.0937    3.4672    0.4635 O.3       1 <0>        -0.4876
     38 H1         -0.7303    1.3952    1.6500 H         1 <0>         0.1248
     39 H2          1.2588    2.7367    2.1776 H         1 <0>         0.1337
     40 H3          0.4948    1.2132   -2.4631 H         1 <0>         0.1332
     41 H4         -1.3458   -0.4857   -1.3475 H         1 <0>         0.1484
     42 H5         -3.4827    0.1098   -0.3189 H         1 <0>         0.1509
     43 H6         -3.1700    4.2149    1.4519 H         1 <0>         0.0913
     44 H7         -4.7098    3.2831    3.1576 H         1 <0>         0.0758
     45 H8         -5.1983    4.9287    2.6869 H         1 <0>         0.1158
     46 H9         -8.0079    3.8557    0.4932 H         1 <0>         0.0919
     47 H10        -7.1243    5.2631    1.1309 H         1 <0>         0.0874
     48 H11        -5.9796    3.1419   -0.7418 H         1 <0>         0.0620
     49 H12        -4.0208    4.6595   -0.8343 H         1 <0>         0.0532
     50 H13        -5.1708    6.6579   -0.2099 H         1 <0>         0.3823
     51 H14        -6.0351    4.9885   -2.2560 H         1 <0>         0.3674
     52 H15        -6.5112   -0.5037    0.6985 H         1 <0>         0.1384
     53 H16        -8.5770   -1.5910   -0.0237 H         1 <0>         0.1421
     54 H17        -8.4536    1.7369   -1.3845 H         1 <0>         0.1193
     55 H18       -10.3582    3.1259   -2.0742 H         1 <0>         0.1303
     56 H19       -11.1431   -0.9280    0.6444 H         1 <0>         0.1313
     57 H20       -13.7519   -0.1689   -0.6020 H         1 <0>         0.3784
     58 H21       -13.2521    2.4058   -2.3362 H         1 <0>         0.3795
     59 H22         3.3792    1.9744   -2.2343 H         1 <0>         0.3832
     60 H23         3.8643    2.9415    0.7184 H         1 <0>         0.3848
@<TRIPOS>BOND
     1    1    6 ar
     2    1    2 ar
     3    1   38 1
     4    2    3 ar
     5    2   39 1
     6    3    4 ar
     7    3   37 1
     8    4    5 ar
     9    4   36 1
    10    5    6 ar
    11    5   40 1
    12    6    7 1
    13    7    8 2
    14    7   41 1
    15    8    9 1
    16    8   42 1
    17    9   10 2
    18    9   11 1
    19   11   12 1
    20   12   17 1
    21   12   13 1
    22   12   43 1
    23   13   14 1
    24   13   44 1
    25   13   45 1
    26   14   15 1
    27   14   20 1
    28   14   23 1
    29   15   16 1
    30   15   46 1
    31   15   47 1
    32   16   17 1
    33   16   19 1
    34   16   48 1
    35   17   18 1
    36   17   49 1
    37   18   50 1
    38   19   51 1
    39   20   21 2
    40   20   22 1
    41   23   24 1
    42   24   25 2
    43   24   26 1
    44   26   27 2
    45   26   52 1
    46   27   28 1
    47   27   53 1
    48   28   33 ar
    49   28   29 ar
    50   29   30 ar
    51   29   54 1
    52   30   31 ar
    53   30   55 1
    54   31   32 ar
    55   31   35 1
    56   32   33 ar
    57   32   34 1
    58   33   56 1
    59   34   57 1
    60   35   58 1
    61   36   59 1
    62   37   60 1
@<TRIPOS>MOLECULE
CHEMBL431948__2
   60    62     0     0     0
SMALL
USER_CHARGES

@<TRIPOS>ATOM
      1 C1         -0.0297    1.6498    0.8764 C.ar      1 <0>        -0.0564
      2 C2          1.0873    2.3996    1.1735 C.ar      1 <0>        -0.1309
      3 C3          1.9949    2.7255    0.1748 C.ar      1 <0>         0.0851
      4 C4          1.7810    2.2961   -1.1350 C.ar      1 <0>         0.0731
      5 C5          0.6645    1.5445   -1.4417 C.ar      1 <0>        -0.1112
      6 C6         -0.2513    1.2149   -0.4351 C.ar      1 <0>        -0.0473
      7 C7         -1.4416    0.4146   -0.7549 C.2       1 <0>        -0.0264
      8 C8         -2.6572    0.8062   -0.3144 C.2       1 <0>        -0.1727
      9 C9         -2.8499    2.1321    0.1491 C.2       1 <0>         0.4781
     10 O1         -1.9567    2.9506    0.0395 O.2       1 <0>        -0.4908
     11 O2         -4.0241    2.4861    0.7119 O.3       1 <0>        -0.2913
     12 C10        -4.1487    3.8385    1.1565 C.3       1 <0>         0.1143
     13 C11        -5.1043    3.8969    2.3500 C.3       1 <0>        -0.0899
     14 C12        -6.4778    3.3694    1.9299 C.3       1 <0>         0.0711
     15 C13        -7.0291    4.2315    0.7925 C.3       1 <0>        -0.1298
     16 C14        -6.0735    4.1731   -0.4010 C.3       1 <0>         0.0881
     17 C15        -4.7001    4.7005    0.0191 C.3       1 <0>         0.0535
     18 O3         -3.8075    4.6460   -1.0956 O.3       1 <0>        -0.5508
     19 O4         -5.9488    2.8208   -0.8456 O.3       1 <0>        -0.5287
     20 C16        -7.4190    3.4270    3.1054 C.2       1 <0>         0.4929
     21 O5         -7.6643    4.4958    3.6382 O.co2     1 <0>        -0.6944
     22 O6         -7.9352    2.4047    3.5236 O.co2     1 <0>        -0.6686
     23 O7         -6.3531    2.0171    1.4853 O.3       1 <0>        -0.3010
     24 C17        -7.4814    1.4001    1.0768 C.2       1 <0>         0.5020
     25 O8         -8.5420    1.9954    1.0981 O.2       1 <0>        -0.4855
     26 C18        -7.4308    0.0579    0.6228 C.2       1 <0>        -0.1479
     27 C19        -8.5324   -0.5183    0.0942 C.2       1 <0>        -0.0506
     28 C20        -9.6704    0.3143   -0.3198 C.ar      1 <0>        -0.0371
     29 C21        -9.4563    1.4619   -1.0921 C.ar      1 <0>        -0.0475
     30 C22       -10.5247    2.2405   -1.4787 C.ar      1 <0>        -0.1352
     31 C23       -11.8152    1.8902   -1.1042 C.ar      1 <0>         0.0801
     32 C24       -12.0369    0.7485   -0.3349 C.ar      1 <0>         0.0705
     33 C25       -10.9723   -0.0411    0.0523 C.ar      1 <0>        -0.1139
     34 O9        -13.3025    0.4094    0.0294 O.3       1 <0>        -0.4870
     35 O10       -12.8647    2.6622   -1.4881 O.3       1 <0>        -0.4881
     36 O11         2.6723    2.6185   -2.1102 O.3       1 <0>        -0.4880
     37 O12         3.0942    3.4649    0.4739 O.3       1 <0>        -0.4884
     38 H1         -0.7317    1.3941    1.6562 H         1 <0>         0.1232
     39 H2          1.2572    2.7351    2.1860 H         1 <0>         0.1316
     40 H3          0.4978    1.2115   -2.4555 H         1 <0>         0.1317
     41 H4         -1.3445   -0.4867   -1.3421 H         1 <0>         0.1443
     42 H5         -3.4822    0.1092   -0.3153 H         1 <0>         0.1466
     43 H6         -3.1703    4.2142    1.4558 H         1 <0>         0.0814
     44 H7         -4.7116    3.2827    3.1603 H         1 <0>         0.0804
     45 H8         -5.1994    4.9284    2.6891 H         1 <0>         0.1032
     46 H9         -8.0075    3.8558    0.4932 H         1 <0>         0.0975
     47 H10        -7.1242    5.2630    1.1316 H         1 <0>         0.0845
     48 H11        -6.4662    4.7873   -1.2113 H         1 <0>         0.0463
     49 H12        -4.7952    5.7321    0.3582 H         1 <0>         0.0708
     50 H13        -4.0946    5.1709   -1.8553 H         1 <0>         0.3701
     51 H14        -5.3565    2.7084   -1.6017 H         1 <0>         0.3607
     52 H15        -6.5116   -0.5038    0.6996 H         1 <0>         0.1344
     53 H16        -8.5768   -1.5909   -0.0242 H         1 <0>         0.1383
     54 H17        -8.4536    1.7369   -1.3845 H         1 <0>         0.1283
     55 H18       -10.3582    3.1259   -2.0742 H         1 <0>         0.1264
     56 H19       -11.1431   -0.9280    0.6444 H         1 <0>         0.1297
     57 H20       -13.7519   -0.1689   -0.6020 H         1 <0>         0.3775
     58 H21       -13.2521    2.4058   -2.3362 H         1 <0>         0.3784
     59 H22         3.3823    1.9718   -2.2235 H         1 <0>         0.3820
     60 H23         3.8644    2.9390    0.7296 H         1 <0>         0.3833
@<TRIPOS>BOND
     1    1    6 ar
     2    1    2 ar
     3    1   38 1
     4    2    3 ar
     5    2   39 1
     6    3    4 ar
     7    3   37 1
     8    4    5 ar
     9    4   36 1
    10    5    6 ar
    11    5   40 1
    12    6    7 1
    13    7    8 2
    14    7   41 1
    15    8    9 1
    16    8   42 1
    17    9   10 2
    18    9   11 1
    19   11   12 1
    20   12   17 1
    21   12   13 1
    22   12   43 1
    23   13   14 1
    24   13   44 1
    25   13   45 1
    26   14   15 1
    27   14   20 1
    28   14   23 1
    29   15   16 1
    30   15   46 1
    31   15   47 1
    32   16   17 1
    33   16   19 1
    34   16   48 1
    35   17   18 1
    36   17   49 1
    37   18   50 1
    38   19   51 1
    39   20   21 2
    40   20   22 1
    41   23   24 1
    42   24   25 2
    43   24   26 1
    44   26   27 2
    45   26   52 1
    46   27   28 1
    47   27   53 1
    48   28   33 ar
    49   28   29 ar
    50   29   30 ar
    51   29   54 1
    52   30   31 ar
    53   30   55 1
    54   31   32 ar
    55   31   35 1
    56   32   33 ar
    57   32   34 1
    58   33   56 1
    59   34   57 1
    60   35   58 1
    61   36   59 1
    62   37   60 1
@<TRIPOS>MOLECULE
CHEMBL431948__3
   60    62     0     0     0
SMALL
USER_CHARGES

@<TRIPOS>ATOM
      1 C1         -0.0297    1.6498    0.8764 C.ar      1 <0>        -0.0558
      2 C2          1.0873    2.3996    1.1735 C.ar      1 <0>        -0.1308
      3 C3          1.9949    2.7255    0.1748 C.ar      1 <0>         0.0875
      4 C4          1.7810    2.2961   -1.1350 C.ar      1 <0>         0.0726
      5 C5          0.6645    1.5445   -1.4417 C.ar      1 <0>        -0.1110
      6 C6         -0.2513    1.2149   -0.4351 C.ar      1 <0>        -0.0541
      7 C7         -1.4416    0.4146   -0.7549 C.2       1 <0>        -0.0168
      8 C8         -2.6572    0.8062   -0.3144 C.2       1 <0>        -0.1799
      9 C9         -2.8499    2.1321    0.1491 C.2       1 <0>         0.4750
     10 O1         -1.9567    2.9506    0.0395 O.2       1 <0>        -0.5070
     11 O2         -4.0241    2.4861    0.7119 O.3       1 <0>        -0.2873
     12 C10        -4.1487    3.8385    1.1565 C.3       1 <0>         0.1085
     13 C11        -5.1043    3.8969    2.3500 C.3       1 <0>        -0.0828
     14 C12        -6.4778    3.3694    1.9299 C.3       1 <0>         0.0728
     15 C13        -7.0291    4.2315    0.7925 C.3       1 <0>        -0.1230
     16 C14        -6.0735    4.1731   -0.4010 C.3       1 <0>         0.0834
     17 C15        -4.7001    4.7005    0.0191 C.3       1 <0>         0.0638
     18 O3         -4.8247    6.0529    0.4637 O.3       1 <0>        -0.5455
     19 O4         -5.9488    2.8208   -0.8456 O.3       1 <0>        -0.5287
     20 C16        -7.4190    3.4270    3.1054 C.2       1 <0>         0.4931
     21 O5         -7.6643    4.4958    3.6382 O.co2     1 <0>        -0.6925
     22 O6         -7.9352    2.4047    3.5236 O.co2     1 <0>        -0.6717
     23 O7         -6.3531    2.0171    1.4853 O.3       1 <0>        -0.3048
     24 C17        -7.4814    1.4001    1.0768 C.2       1 <0>         0.5004
     25 O8         -8.5420    1.9954    1.0981 O.2       1 <0>        -0.4845
     26 C18        -7.4308    0.0579    0.6228 C.2       1 <0>        -0.1480
     27 C19        -8.5324   -0.5183    0.0942 C.2       1 <0>        -0.0509
     28 C20        -9.6704    0.3143   -0.3198 C.ar      1 <0>        -0.0371
     29 C21        -9.4563    1.4619   -1.0921 C.ar      1 <0>        -0.0476
     30 C22       -10.5247    2.2405   -1.4787 C.ar      1 <0>        -0.1351
     31 C23       -11.8152    1.8902   -1.1042 C.ar      1 <0>         0.0802
     32 C24       -12.0369    0.7485   -0.3349 C.ar      1 <0>         0.0706
     33 C25       -10.9723   -0.0411    0.0523 C.ar      1 <0>        -0.1139
     34 O9        -13.3025    0.4094    0.0294 O.3       1 <0>        -0.4869
     35 O10       -12.8647    2.6622   -1.4881 O.3       1 <0>        -0.4880
     36 O11         2.6723    2.6185   -2.1102 O.3       1 <0>        -0.4878
     37 O12         3.0942    3.4649    0.4739 O.3       1 <0>        -0.4879
     38 H1         -0.7317    1.3941    1.6562 H         1 <0>         0.1243
     39 H2          1.2572    2.7351    2.1860 H         1 <0>         0.1331
     40 H3          0.4978    1.2115   -2.4555 H         1 <0>         0.1327
     41 H4         -1.3445   -0.4867   -1.3421 H         1 <0>         0.1468
     42 H5         -3.4822    0.1092   -0.3153 H         1 <0>         0.1511
     43 H6         -3.1703    4.2142    1.4558 H         1 <0>         0.0838
     44 H7         -4.7116    3.2827    3.1603 H         1 <0>         0.0713
     45 H8         -5.1994    4.9284    2.6891 H         1 <0>         0.1103
     46 H9         -8.0075    3.8558    0.4932 H         1 <0>         0.0925
     47 H10        -7.1242    5.2630    1.1316 H         1 <0>         0.0900
     48 H11        -6.4662    4.7873   -1.2113 H         1 <0>         0.0476
     49 H12        -4.0193    4.6589   -0.8312 H         1 <0>         0.0527
     50 H13        -5.1694    6.6575   -0.2077 H         1 <0>         0.3788
     51 H14        -5.3565    2.7084   -1.6017 H         1 <0>         0.3572
     52 H15        -6.5116   -0.5038    0.6996 H         1 <0>         0.1341
     53 H16        -8.5768   -1.5909   -0.0242 H         1 <0>         0.1381
     54 H17        -8.4536    1.7369   -1.3845 H         1 <0>         0.1280
     55 H18       -10.3582    3.1259   -2.0742 H         1 <0>         0.1264
     56 H19       -11.1431   -0.9280    0.6444 H         1 <0>         0.1297
     57 H20       -13.7519   -0.1689   -0.6020 H         1 <0>         0.3775
     58 H21       -13.2521    2.4058   -2.3362 H         1 <0>         0.3783
     59 H22         3.3823    1.9718   -2.2235 H         1 <0>         0.3829
     60 H23         3.8644    2.9390    0.7296 H         1 <0>         0.3844
@<TRIPOS>BOND
     1    1    6 ar
     2    1    2 ar
     3    1   38 1
     4    2    3 ar
     5    2   39 1
     6    3    4 ar
     7    3   37 1
     8    4    5 ar
     9    4   36 1
    10    5    6 ar
    11    5   40 1
    12    6    7 1
    13    7    8 2
    14    7   41 1
    15    8    9 1
    16    8   42 1
    17    9   10 2
    18    9   11 1
    19   11   12 1
    20   12   17 1
    21   12   13 1
    22   12   43 1
    23   13   14 1
    24   13   44 1
    25   13   45 1
    26   14   15 1
    27   14   20 1
    28   14   23 1
    29   15   16 1
    30   15   46 1
    31   15   47 1
    32   16   17 1
    33   16   19 1
    34   16   48 1
    35   17   18 1
    36   17   49 1
    37   18   50 1
    38   19   51 1
    39   20   21 2
    40   20   22 1
    41   23   24 1
    42   24   25 2
    43   24   26 1
    44   26   27 2
    45   26   52 1
    46   27   28 1
    47   27   53 1
    48   28   33 ar
    49   28   29 ar
    50   29   30 ar
    51   29   54 1
    52   30   31 ar
    53   30   55 1
    54   31   32 ar
    55   31   35 1
    56   32   33 ar
    57   32   34 1
    58   33   56 1
    59   34   57 1
    60   35   58 1
    61   36   59 1
    62   37   60 1
@<TRIPOS>MOLECULE
CHEMBL431948__4
   60    62     0     0     0
SMALL
USER_CHARGES

@<TRIPOS>ATOM
      1 C1         -0.0222    0.6595    2.2109 C.ar      1 <0>        -0.0552
      2 C2          1.0146    1.2930    2.8605 C.ar      1 <0>        -0.1290
      3 C3          2.3243    1.0921    2.4461 C.ar      1 <0>         0.0900
      4 C4          2.5979    0.2484    1.3695 C.ar      1 <0>         0.0724
      5 C5          1.5654   -0.3903    0.7127 C.ar      1 <0>        -0.1101
      6 C6          0.2441   -0.1888    1.1303 C.ar      1 <0>        -0.0585
      7 C7         -0.8597   -0.8661    0.4357 C.2       1 <0>        -0.0097
      8 C8         -1.9525   -0.1660    0.0605 C.2       1 <0>        -0.1881
      9 C9         -1.9066    1.2503    0.0170 C.2       1 <0>         0.4827
     10 O1         -0.8532    1.8306    0.1997 O.2       1 <0>        -0.4978
     11 O2         -3.0314    1.9546   -0.2271 O.3       1 <0>        -0.3346
     12 C10        -2.9118    3.3783   -0.2566 C.3       1 <0>         0.1086
     13 C11        -4.2282    4.0103    0.2000 C.3       1 <0>        -0.0795
     14 C12        -4.1002    5.5346    0.1684 C.3       1 <0>         0.0731
     15 C13        -3.7832    5.9903   -1.2574 C.3       1 <0>        -0.1261
     16 C14        -2.4667    5.3583   -1.7139 C.3       1 <0>         0.0829
     17 C15        -2.5948    3.8340   -1.6823 C.3       1 <0>         0.0641
     18 O3         -3.6478    3.4262   -2.5580 O.3       1 <0>        -0.5422
     19 O4         -1.4136    5.7661   -0.8383 O.3       1 <0>        -0.5412
     20 C16        -5.3968    6.1570    0.6181 C.2       1 <0>         0.4994
     21 O5         -5.4173    6.8826    1.5977 O.co2     1 <0>        -0.6698
     22 O6         -6.4255    5.9350    0.0023 O.co2     1 <0>        -0.6870
     23 O7         -3.0471    5.9424    1.0440 O.3       1 <0>        -0.3281
     24 C17        -2.8022    7.2663    1.1326 C.2       1 <0>         0.5068
     25 O8         -3.4657    8.0524    0.4832 O.2       1 <0>        -0.4816
     26 C18        -1.7716    7.7413    1.9825 C.2       1 <0>        -0.1616
     27 C19        -1.6091    9.0692    2.1703 C.2       1 <0>        -0.0387
     28 C20        -2.6751   10.0024    1.7797 C.ar      1 <0>        -0.0556
     29 C21        -4.0016    9.7458    2.1460 C.ar      1 <0>        -0.0249
     30 C22        -4.9987   10.6221    1.7785 C.ar      1 <0>        -0.1249
     31 C23        -4.6921   11.7606    1.0449 C.ar      1 <0>         0.0826
     32 C24        -3.3731   12.0232    0.6761 C.ar      1 <0>         0.0591
     33 C25        -2.3663   11.1533    1.0451 C.ar      1 <0>        -0.1170
     34 O9         -3.0776   13.1395   -0.0423 O.3       1 <0>        -0.4893
     35 O10        -5.6797   12.6207    0.6851 O.3       1 <0>        -0.4886
     36 O11         3.8824    0.0554    0.9665 O.3       1 <0>        -0.4875
     37 O12         3.3421    1.7193    3.0905 O.3       1 <0>        -0.4871
     38 H1         -1.0397    0.8142    2.5383 H         1 <0>         0.1243
     39 H2          0.8080    1.9477    3.6942 H         1 <0>         0.1347
     40 H3          1.7760   -1.0438   -0.1209 H         1 <0>         0.1326
     41 H4         -0.7972   -1.9235    0.2251 H         1 <0>         0.1479
     42 H5         -2.8612   -0.6853   -0.2063 H         1 <0>         0.1488
     43 H6         -2.1085    3.6894    0.4113 H         1 <0>         0.1081
     44 H7         -5.0315    3.6992   -0.4680 H         1 <0>         0.1010
     45 H8         -4.4541    3.6856    1.2157 H         1 <0>         0.0704
     46 H9         -4.5864    5.6792   -1.9253 H         1 <0>         0.0944
     47 H10        -3.6919    7.0762   -1.2799 H         1 <0>         0.0943
     48 H11        -2.2409    5.6830   -2.7297 H         1 <0>         0.0543
     49 H12        -1.6569    3.3838   -2.0076 H         1 <0>         0.0530
     50 H13        -3.5134    3.6822   -3.4808 H         1 <0>         0.3725
     51 H14        -0.5477    5.4022   -1.0683 H         1 <0>         0.3670
     52 H15        -1.1163    7.0415    2.4798 H         1 <0>         0.1350
     53 H16        -0.6959    9.4451    2.6074 H         1 <0>         0.1380
     54 H17        -4.2430    8.8610    2.7162 H         1 <0>         0.1369
     55 H18        -6.0218   10.4230    2.0614 H         1 <0>         0.1311
     56 H19        -1.3438   11.3579    0.7639 H         1 <0>         0.1261
     57 H20        -2.8722   13.9133    0.5000 H         1 <0>         0.3758
     58 H21        -5.8462   13.3208    1.3310 H         1 <0>         0.3783
     59 H22         4.3250   -0.6846    1.4042 H         1 <0>         0.3829
     60 H23         3.7074    1.2168    3.8316 H         1 <0>         0.3846
@<TRIPOS>BOND
     1    1    6 ar
     2    1    2 ar
     3    1   38 1
     4    2    3 ar
     5    2   39 1
     6    3    4 ar
     7    3   37 1
     8    4    5 ar
     9    4   36 1
    10    5    6 ar
    11    5   40 1
    12    6    7 1
    13    7    8 2
    14    7   41 1
    15    8    9 1
    16    8   42 1
    17    9   10 2
    18    9   11 1
    19   11   12 1
    20   12   17 1
    21   12   13 1
    22   12   43 1
    23   13   14 1
    24   13   44 1
    25   13   45 1
    26   14   15 1
    27   14   20 1
    28   14   23 1
    29   15   16 1
    30   15   46 1
    31   15   47 1
    32   16   17 1
    33   16   19 1
    34   16   48 1
    35   17   18 1
    36   17   49 1
    37   18   50 1
    38   19   51 1
    39   20   21 2
    40   20   22 1
    41   23   24 1
    42   24   25 2
    43   24   26 1
    44   26   27 2
    45   26   52 1
    46   27   28 1
    47   27   53 1
    48   28   33 ar
    49   28   29 ar
    50   29   30 ar
    51   29   54 1
    52   30   31 ar
    53   30   55 1
    54   31   32 ar
    55   31   35 1
    56   32   33 ar
    57   32   34 1
    58   33   56 1
    59   34   57 1
    60   35   58 1
    61   36   59 1
    62   37   60 1
@<TRIPOS>MOLECULE
CHEMBL431948__5
   60    62     0     0     0
SMALL
USER_CHARGES

@<TRIPOS>ATOM
      1 C1         -0.0222    0.6595    2.2109 C.ar      1 <0>        -0.0558
      2 C2          1.0146    1.2930    2.8605 C.ar      1 <0>        -0.1288
      3 C3          2.3243    1.0921    2.4461 C.ar      1 <0>         0.0889
      4 C4          2.5979    0.2484    1.3695 C.ar      1 <0>         0.0729
      5 C5          1.5654   -0.3903    0.7127 C.ar      1 <0>        -0.1096
      6 C6          0.2441   -0.1888    1.1303 C.ar      1 <0>        -0.0546
      7 C7         -0.8597   -0.8661    0.4357 C.2       1 <0>        -0.0151
      8 C8         -1.9525   -0.1660    0.0605 C.2       1 <0>        -0.1841
      9 C9         -1.9066    1.2503    0.0170 C.2       1 <0>         0.4850
     10 O1         -0.8532    1.8306    0.1997 O.2       1 <0>        -0.4735
     11 O2         -3.0314    1.9546   -0.2271 O.3       1 <0>        -0.3479
     12 C10        -2.9118    3.3783   -0.2566 C.3       1 <0>         0.1107
     13 C11        -4.2282    4.0103    0.2000 C.3       1 <0>        -0.0833
     14 C12        -4.1002    5.5346    0.1684 C.3       1 <0>         0.0709
     15 C13        -3.7832    5.9903   -1.2574 C.3       1 <0>        -0.1326
     16 C14        -2.4667    5.3583   -1.7139 C.3       1 <0>         0.0866
     17 C15        -2.5948    3.8340   -1.6823 C.3       1 <0>         0.0576
     18 O3         -1.3652    3.2438   -2.1088 O.3       1 <0>        -0.5520
     19 O4         -1.4136    5.7661   -0.8383 O.3       1 <0>        -0.5409
     20 C16        -5.3968    6.1570    0.6181 C.2       1 <0>         0.4993
     21 O5         -5.4173    6.8826    1.5977 O.co2     1 <0>        -0.6667
     22 O6         -6.4255    5.9350    0.0023 O.co2     1 <0>        -0.6887
     23 O7         -3.0471    5.9424    1.0440 O.3       1 <0>        -0.3245
     24 C17        -2.8022    7.2663    1.1326 C.2       1 <0>         0.5082
     25 O8         -3.4657    8.0524    0.4832 O.2       1 <0>        -0.4824
     26 C18        -1.7716    7.7413    1.9825 C.2       1 <0>        -0.1612
     27 C19        -1.6091    9.0692    2.1703 C.2       1 <0>        -0.0385
     28 C20        -2.6751   10.0024    1.7797 C.ar      1 <0>        -0.0553
     29 C21        -4.0016    9.7458    2.1460 C.ar      1 <0>        -0.0252
     30 C22        -4.9987   10.6221    1.7785 C.ar      1 <0>        -0.1250
     31 C23        -4.6921   11.7606    1.0449 C.ar      1 <0>         0.0824
     32 C24        -3.3731   12.0232    0.6761 C.ar      1 <0>         0.0593
     33 C25        -2.3663   11.1533    1.0451 C.ar      1 <0>        -0.1169
     34 O9         -3.0776   13.1395   -0.0423 O.3       1 <0>        -0.4893
     35 O10        -5.6797   12.6207    0.6851 O.3       1 <0>        -0.4887
     36 O11         3.8824    0.0554    0.9665 O.3       1 <0>        -0.4875
     37 O12         3.3421    1.7193    3.0905 O.3       1 <0>        -0.4872
     38 H1         -1.0397    0.8142    2.5383 H         1 <0>         0.1233
     39 H2          0.8080    1.9477    3.6942 H         1 <0>         0.1337
     40 H3          1.7760   -1.0438   -0.1209 H         1 <0>         0.1319
     41 H4         -0.7972   -1.9235    0.2251 H         1 <0>         0.1461
     42 H5         -2.8612   -0.6853   -0.2063 H         1 <0>         0.1451
     43 H6         -2.1085    3.6894    0.4113 H         1 <0>         0.1040
     44 H7         -5.0315    3.6992   -0.4680 H         1 <0>         0.0934
     45 H8         -4.4541    3.6856    1.2157 H         1 <0>         0.0796
     46 H9         -4.5864    5.6792   -1.9253 H         1 <0>         0.0889
     47 H10        -3.6919    7.0762   -1.2799 H         1 <0>         0.0994
     48 H11        -2.2409    5.6830   -2.7297 H         1 <0>         0.0534
     49 H12        -3.3980    3.5230   -2.3503 H         1 <0>         0.0667
     50 H13        -1.1014    3.4894   -3.0061 H         1 <0>         0.3705
     51 H14        -0.5477    5.4022   -1.0683 H         1 <0>         0.3702
     52 H15        -1.1163    7.0415    2.4798 H         1 <0>         0.1353
     53 H16        -0.6959    9.4451    2.6074 H         1 <0>         0.1382
     54 H17        -4.2430    8.8610    2.7162 H         1 <0>         0.1368
     55 H18        -6.0218   10.4230    2.0614 H         1 <0>         0.1310
     56 H19        -1.3438   11.3579    0.7639 H         1 <0>         0.1263
     57 H20        -2.8722   13.9133    0.5000 H         1 <0>         0.3759
     58 H21        -5.8462   13.3208    1.3310 H         1 <0>         0.3783
     59 H22         4.3250   -0.6846    1.4042 H         1 <0>         0.3821
     60 H23         3.7074    1.2168    3.8316 H         1 <0>         0.3837
@<TRIPOS>BOND
     1    1    6 ar
     2    1    2 ar
     3    1   38 1
     4    2    3 ar
     5    2   39 1
     6    3    4 ar
     7    3   37 1
     8    4    5 ar
     9    4   36 1
    10    5    6 ar
    11    5   40 1
    12    6    7 1
    13    7    8 2
    14    7   41 1
    15    8    9 1
    16    8   42 1
    17    9   10 2
    18    9   11 1
    19   11   12 1
    20   12   17 1
    21   12   13 1
    22   12   43 1
    23   13   14 1
    24   13   44 1
    25   13   45 1
    26   14   15 1
    27   14   20 1
    28   14   23 1
    29   15   16 1
    30   15   46 1
    31   15   47 1
    32   16   17 1
    33   16   19 1
    34   16   48 1
    35   17   18 1
    36   17   49 1
    37   18   50 1
    38   19   51 1
    39   20   21 2
    40   20   22 1
    41   23   24 1
    42   24   25 2
    43   24   26 1
    44   26   27 2
    45   26   52 1
    46   27   28 1
    47   27   53 1
    48   28   33 ar
    49   28   29 ar
    50   29   30 ar
    51   29   54 1
    52   30   31 ar
    53   30   55 1
    54   31   32 ar
    55   31   35 1
    56   32   33 ar
    57   32   34 1
    58   33   56 1
    59   34   57 1
    60   35   58 1
    61   36   59 1
    62   37   60 1
@<TRIPOS>MOLECULE
CHEMBL431948__6
   60    62     0     0     0
SMALL
USER_CHARGES

@<TRIPOS>ATOM
      1 C1         -0.0222    0.6595    2.2109 C.ar      1 <0>        -0.0561
      2 C2          1.0146    1.2930    2.8605 C.ar      1 <0>        -0.1297
      3 C3          2.3243    1.0921    2.4461 C.ar      1 <0>         0.0898
      4 C4          2.5979    0.2484    1.3695 C.ar      1 <0>         0.0728
      5 C5          1.5654   -0.3903    0.7127 C.ar      1 <0>        -0.1096
      6 C6          0.2441   -0.1888    1.1303 C.ar      1 <0>        -0.0590
      7 C7         -0.8597   -0.8661    0.4357 C.2       1 <0>        -0.0084
      8 C8         -1.9525   -0.1660    0.0605 C.2       1 <0>        -0.1882
      9 C9         -1.9066    1.2503    0.0170 C.2       1 <0>         0.4834
     10 O1         -0.8532    1.8306    0.1997 O.2       1 <0>        -0.4989
     11 O2         -3.0314    1.9546   -0.2271 O.3       1 <0>        -0.3303
     12 C10        -2.9118    3.3783   -0.2566 C.3       1 <0>         0.1060
     13 C11        -4.2282    4.0103    0.2000 C.3       1 <0>        -0.0809
     14 C12        -4.1002    5.5346    0.1684 C.3       1 <0>         0.0684
     15 C13        -3.7831    5.9903   -1.2574 C.3       1 <0>        -0.1207
     16 C14        -2.4667    5.3583   -1.7139 C.3       1 <0>         0.0799
     17 C15        -2.5947    3.8340   -1.6824 C.3       1 <0>         0.0657
     18 O3         -3.6478    3.4262   -2.5580 O.3       1 <0>        -0.5412
     19 O4         -2.1706    5.7840   -3.0456 O.3       1 <0>        -0.5570
     20 C16        -5.3968    6.1570    0.6181 C.2       1 <0>         0.5038
     21 O5         -5.4173    6.8826    1.5977 O.co2     1 <0>        -0.6680
     22 O6         -6.4255    5.9350    0.0023 O.co2     1 <0>        -0.6804
     23 O7         -3.0471    5.9424    1.0440 O.3       1 <0>        -0.3473
     24 C17        -2.8022    7.2663    1.1326 C.2       1 <0>         0.4893
     25 O8         -3.4657    8.0524    0.4832 O.2       1 <0>        -0.4669
     26 C18        -1.7716    7.7413    1.9825 C.2       1 <0>        -0.1782
     27 C19        -1.6091    9.0692    2.1703 C.2       1 <0>        -0.0233
     28 C20        -2.6751   10.0024    1.7797 C.ar      1 <0>        -0.0641
     29 C21        -4.0016    9.7458    2.1460 C.ar      1 <0>        -0.0252
     30 C22        -4.9987   10.6221    1.7785 C.ar      1 <0>        -0.1246
     31 C23        -4.6921   11.7606    1.0449 C.ar      1 <0>         0.0860
     32 C24        -3.3731   12.0232    0.6761 C.ar      1 <0>         0.0598
     33 C25        -2.3663   11.1533    1.0451 C.ar      1 <0>        -0.1146
     34 O9         -3.0776   13.1395   -0.0423 O.3       1 <0>        -0.4885
     35 O10        -5.6797   12.6207    0.6851 O.3       1 <0>        -0.4880
     36 O11         3.8824    0.0554    0.9665 O.3       1 <0>        -0.4873
     37 O12         3.3421    1.7193    3.0905 O.3       1 <0>        -0.4872
     38 H1         -1.0397    0.8142    2.5383 H         1 <0>         0.1246
     39 H2          0.8080    1.9477    3.6942 H         1 <0>         0.1347
     40 H3          1.7760   -1.0438   -0.1209 H         1 <0>         0.1331
     41 H4         -0.7972   -1.9235    0.2251 H         1 <0>         0.1486
     42 H5         -2.8612   -0.6853   -0.2063 H         1 <0>         0.1497
     43 H6         -2.1085    3.6894    0.4113 H         1 <0>         0.1009
     44 H7         -5.0315    3.6992   -0.4680 H         1 <0>         0.1065
     45 H8         -4.4541    3.6856    1.2157 H         1 <0>         0.0748
     46 H9         -4.5864    5.6792   -1.9253 H         1 <0>         0.0917
     47 H10        -3.6919    7.0762   -1.2799 H         1 <0>         0.0938
     48 H11        -1.6634    5.6694   -1.0460 H         1 <0>         0.0596
     49 H12        -1.6569    3.3838   -2.0076 H         1 <0>         0.0539
     50 H13        -3.5133    3.6822   -3.4808 H         1 <0>         0.3760
     51 H14        -1.3476    5.4211   -3.4006 H         1 <0>         0.3696
     52 H15        -1.1163    7.0415    2.4798 H         1 <0>         0.1390
     53 H16        -0.6959    9.4451    2.6074 H         1 <0>         0.1412
     54 H17        -4.2430    8.8610    2.7162 H         1 <0>         0.1378
     55 H18        -6.0218   10.4230    2.0614 H         1 <0>         0.1323
     56 H19        -1.3438   11.3579    0.7639 H         1 <0>         0.1273
     57 H20        -2.8722   13.9133    0.5000 H         1 <0>         0.3764
     58 H21        -5.8462   13.3208    1.3310 H         1 <0>         0.3792
     59 H22         4.3250   -0.6846    1.4042 H         1 <0>         0.3831
     60 H23         3.7074    1.2168    3.8316 H         1 <0>         0.3848
@<TRIPOS>BOND
     1    1    6 ar
     2    1    2 ar
     3    1   38 1
     4    2    3 ar
     5    2   39 1
     6    3    4 ar
     7    3   37 1
     8    4    5 ar
     9    4   36 1
    10    5    6 ar
    11    5   40 1
    12    6    7 1
    13    7    8 2
    14    7   41 1
    15    8    9 1
    16    8   42 1
    17    9   10 2
    18    9   11 1
    19   11   12 1
    20   12   17 1
    21   12   13 1
    22   12   43 1
    23   13   14 1
    24   13   44 1
    25   13   45 1
    26   14   15 1
    27   14   20 1
    28   14   23 1
    29   15   16 1
    30   15   46 1
    31   15   47 1
    32   16   17 1
    33   16   19 1
    34   16   48 1
    35   17   18 1
    36   17   49 1
    37   18   50 1
    38   19   51 1
    39   20   21 2
    40   20   22 1
    41   23   24 1
    42   24   25 2
    43   24   26 1
    44   26   27 2
    45   26   52 1
    46   27   28 1
    47   27   53 1
    48   28   33 ar
    49   28   29 ar
    50   29   30 ar
    51   29   54 1
    52   30   31 ar
    53   30   55 1
    54   31   32 ar
    55   31   35 1
    56   32   33 ar
    57   32   34 1
    58   33   56 1
    59   34   57 1
    60   35   58 1
    61   36   59 1
    62   37   60 1
@<TRIPOS>MOLECULE
CHEMBL431948__7
   60    62     0     0     0
SMALL
USER_CHARGES

@<TRIPOS>ATOM
      1 C1         -0.0222    0.6595    2.2109 C.ar      1 <0>        -0.0566
      2 C2          1.0146    1.2930    2.8605 C.ar      1 <0>        -0.1295
      3 C3          2.3243    1.0921    2.4461 C.ar      1 <0>         0.0887
      4 C4          2.5979    0.2484    1.3695 C.ar      1 <0>         0.0732
      5 C5          1.5654   -0.3903    0.7127 C.ar      1 <0>        -0.1091
      6 C6          0.2441   -0.1888    1.1303 C.ar      1 <0>        -0.0553
      7 C7         -0.8597   -0.8661    0.4357 C.2       1 <0>        -0.0135
      8 C8         -1.9525   -0.1660    0.0605 C.2       1 <0>        -0.1843
      9 C9         -1.9066    1.2503    0.0170 C.2       1 <0>         0.4855
     10 O1         -0.8532    1.8306    0.1997 O.2       1 <0>        -0.4745
     11 O2         -3.0314    1.9546   -0.2271 O.3       1 <0>        -0.3435
     12 C10        -2.9118    3.3783   -0.2566 C.3       1 <0>         0.1078
     13 C11        -4.2282    4.0103    0.2000 C.3       1 <0>        -0.0846
     14 C12        -4.1002    5.5346    0.1684 C.3       1 <0>         0.0663
     15 C13        -3.7831    5.9903   -1.2574 C.3       1 <0>        -0.1277
     16 C14        -2.4667    5.3583   -1.7139 C.3       1 <0>         0.0837
     17 C15        -2.5947    3.8340   -1.6824 C.3       1 <0>         0.0596
     18 O3         -1.3652    3.2438   -2.1088 O.3       1 <0>        -0.5506
     19 O4         -2.1706    5.7840   -3.0456 O.3       1 <0>        -0.5565
     20 C16        -5.3968    6.1570    0.6181 C.2       1 <0>         0.5036
     21 O5         -5.4173    6.8826    1.5977 O.co2     1 <0>        -0.6647
     22 O6         -6.4255    5.9350    0.0023 O.co2     1 <0>        -0.6819
     23 O7         -3.0471    5.9424    1.0440 O.3       1 <0>        -0.3438
     24 C17        -2.8022    7.2663    1.1326 C.2       1 <0>         0.4906
     25 O8         -3.4657    8.0524    0.4832 O.2       1 <0>        -0.4677
     26 C18        -1.7716    7.7413    1.9825 C.2       1 <0>        -0.1780
     27 C19        -1.6091    9.0692    2.1703 C.2       1 <0>        -0.0229
     28 C20        -2.6751   10.0024    1.7797 C.ar      1 <0>        -0.0639
     29 C21        -4.0016    9.7458    2.1460 C.ar      1 <0>        -0.0256
     30 C22        -4.9987   10.6221    1.7785 C.ar      1 <0>        -0.1247
     31 C23        -4.6921   11.7606    1.0449 C.ar      1 <0>         0.0859
     32 C24        -3.3731   12.0232    0.6761 C.ar      1 <0>         0.0601
     33 C25        -2.3663   11.1533    1.0451 C.ar      1 <0>        -0.1144
     34 O9         -3.0776   13.1395   -0.0423 O.3       1 <0>        -0.4885
     35 O10        -5.6797   12.6207    0.6851 O.3       1 <0>        -0.4881
     36 O11         3.8824    0.0554    0.9665 O.3       1 <0>        -0.4873
     37 O12         3.3421    1.7193    3.0905 O.3       1 <0>        -0.4873
     38 H1         -1.0397    0.8142    2.5383 H         1 <0>         0.1237
     39 H2          0.8080    1.9477    3.6942 H         1 <0>         0.1337
     40 H3          1.7760   -1.0438   -0.1209 H         1 <0>         0.1324
     41 H4         -0.7972   -1.9235    0.2251 H         1 <0>         0.1470
     42 H5         -2.8612   -0.6853   -0.2063 H         1 <0>         0.1462
     43 H6         -2.1085    3.6894    0.4113 H         1 <0>         0.0968
     44 H7         -5.0315    3.6992   -0.4680 H         1 <0>         0.0992
     45 H8         -4.4541    3.6856    1.2157 H         1 <0>         0.0842
     46 H9         -4.5864    5.6792   -1.9253 H         1 <0>         0.0864
     47 H10        -3.6919    7.0762   -1.2799 H         1 <0>         0.0995
     48 H11        -1.6634    5.6694   -1.0460 H         1 <0>         0.0622
     49 H12        -3.3980    3.5230   -2.3503 H         1 <0>         0.0711
     50 H13        -1.1014    3.4894   -3.0061 H         1 <0>         0.3691
     51 H14        -1.3476    5.4211   -3.4006 H         1 <0>         0.3677
     52 H15        -1.1163    7.0415    2.4798 H         1 <0>         0.1394
     53 H16        -0.6959    9.4451    2.6074 H         1 <0>         0.1415
     54 H17        -4.2430    8.8610    2.7162 H         1 <0>         0.1377
     55 H18        -6.0218   10.4230    2.0614 H         1 <0>         0.1322
     56 H19        -1.3438   11.3579    0.7639 H         1 <0>         0.1275
     57 H20        -2.8722   13.9133    0.5000 H         1 <0>         0.3766
     58 H21        -5.8462   13.3208    1.3310 H         1 <0>         0.3793
     59 H22         4.3250   -0.6846    1.4042 H         1 <0>         0.3823
     60 H23         3.7074    1.2168    3.8316 H         1 <0>         0.3839
@<TRIPOS>BOND
     1    1    6 ar
     2    1    2 ar
     3    1   38 1
     4    2    3 ar
     5    2   39 1
     6    3    4 ar
     7    3   37 1
     8    4    5 ar
     9    4   36 1
    10    5    6 ar
    11    5   40 1
    12    6    7 1
    13    7    8 2
    14    7   41 1
    15    8    9 1
    16    8   42 1
    17    9   10 2
    18    9   11 1
    19   11   12 1
    20   12   17 1
    21   12   13 1
    22   12   43 1
    23   13   14 1
    24   13   44 1
    25   13   45 1
    26   14   15 1
    27   14   20 1
    28   14   23 1
    29   15   16 1
    30   15   46 1
    31   15   47 1
    32   16   17 1
    33   16   19 1
    34   16   48 1
    35   17   18 1
    36   17   49 1
    37   18   50 1
    38   19   51 1
    39   20   21 2
    40   20   22 1
    41   23   24 1
    42   24   25 2
    43   24   26 1
    44   26   27 2
    45   26   52 1
    46   27   28 1
    47   27   53 1
    48   28   33 ar
    49   28   29 ar
    50   29   30 ar
    51   29   54 1
    52   30   31 ar
    53   30   55 1
    54   31   32 ar
    55   31   35 1
    56   32   33 ar
    57   32   34 1
    58   33   56 1
    59   34   57 1
    60   35   58 1
    61   36   59 1
    62   37   60 1
@<TRIPOS>MOLECULE
CHEMBL431948__8
   60    62     0     0     0
SMALL
USER_CHARGES

@<TRIPOS>ATOM
      1 C1          0.1970    0.1804    1.0223 C.ar      1 <0>        -0.0906
      2 C2          1.3587    0.8300    0.6662 C.ar      1 <0>        -0.1307
      3 C3          1.4774    1.4090   -0.5900 C.ar      1 <0>         0.0829
      4 C4          0.4214    1.3368   -1.4984 C.ar      1 <0>         0.0863
      5 C5         -0.7462    0.6880   -1.1501 C.ar      1 <0>        -0.0946
      6 C6         -0.8668    0.1033    0.1165 C.ar      1 <0>        -0.0474
      7 C7         -2.1069   -0.5893    0.4933 C.2       1 <0>        -0.0178
      8 C8         -3.2888    0.0625    0.4361 C.2       1 <0>        -0.1799
      9 C9         -3.3145    1.4767    0.3382 C.2       1 <0>         0.4844
     10 O1         -2.2829    2.1125    0.4448 O.2       1 <0>        -0.4719
     11 O2         -4.4830    2.1172    0.1266 O.3       1 <0>        -0.3438
     12 C10        -4.4348    3.5427    0.0386 C.3       1 <0>         0.1078
     13 C11        -5.5504    4.0346   -0.8857 C.3       1 <0>        -0.0850
     14 C12        -5.4987    5.5609   -0.9800 C.3       1 <0>         0.0659
     15 C13        -5.6874    6.1645    0.4131 C.3       1 <0>        -0.1274
     16 C14        -4.5718    5.6726    1.3375 C.3       1 <0>         0.0836
     17 C15        -4.6234    4.1464    1.4317 C.3       1 <0>         0.0601
     18 O3         -3.5815    3.6869    2.2950 O.3       1 <0>        -0.5504
     19 O4         -4.7480    6.2365    2.6386 O.3       1 <0>        -0.5562
     20 C16        -6.5976    6.0454   -1.8904 C.2       1 <0>         0.5014
     21 O5         -7.7623    5.8062   -1.6210 O.co2     1 <0>        -0.6828
     22 O6         -6.3218    6.6766   -2.8964 O.co2     1 <0>        -0.6637
     23 O7         -4.2324    5.9630   -1.5059 O.3       1 <0>        -0.3426
     24 C17        -4.0232    7.2878   -1.6535 C.2       1 <0>         0.4901
     25 O8         -4.8934    8.0793   -1.3436 O.2       1 <0>        -0.4658
     26 C18        -2.7890    7.7574   -2.1698 C.2       1 <0>        -0.1693
     27 C19        -2.5260    9.0824   -2.1910 C.2       1 <0>        -0.0305
     28 C20        -3.3792   10.0130   -1.4387 C.ar      1 <0>        -0.0494
     29 C21        -3.7312    9.7281   -0.1142 C.ar      1 <0>        -0.0434
     30 C22        -4.5309   10.6020    0.5885 C.ar      1 <0>        -0.1327
     31 C23        -4.9898   11.7663   -0.0135 C.ar      1 <0>         0.0857
     32 C24        -4.6435   12.0572   -1.3327 C.ar      1 <0>         0.0702
     33 C25        -3.8375   11.1897   -2.0428 C.ar      1 <0>        -0.1097
     34 O9         -5.0953   13.1986   -1.9181 O.3       1 <0>        -0.4862
     35 O10        -5.7785   12.6239    0.6844 O.3       1 <0>        -0.4868
     36 O11         0.5419    1.9062   -2.7275 O.3       1 <0>        -0.4839
     37 O12         2.6251    2.0480   -0.9352 O.3       1 <0>        -0.4872
     38 H1          0.1091   -0.2730    1.9986 H         1 <0>         0.1291
     39 H2          2.1789    0.8892    1.3663 H         1 <0>         0.1318
     40 H3         -1.5645    0.6315   -1.8527 H         1 <0>         0.1280
     41 H4         -2.0734   -1.6195    0.8160 H         1 <0>         0.1483
     42 H5         -4.2142   -0.4936    0.4650 H         1 <0>         0.1462
     43 H6         -3.4688    3.8495   -0.3626 H         1 <0>         0.0971
     44 H7         -5.4160    3.6046   -1.8783 H         1 <0>         0.0845
     45 H8         -6.5163    3.7279   -0.4846 H         1 <0>         0.0996
     46 H9         -5.6506    7.2519    0.3460 H         1 <0>         0.0998
     47 H10        -6.6533    5.8578    0.8143 H         1 <0>         0.0872
     48 H11        -3.6058    5.9794    0.9363 H         1 <0>         0.0619
     49 H12        -5.5894    3.8396    1.8329 H         1 <0>         0.0716
     50 H13        -3.6379    4.0306    3.1971 H         1 <0>         0.3683
     51 H14        -4.0747    5.9672    3.2784 H         1 <0>         0.3673
     52 H15        -2.0592    7.0560   -2.5462 H         1 <0>         0.1407
     53 H16        -1.6888    9.4577   -2.7607 H         1 <0>         0.1438
     54 H17        -3.3761    8.8232    0.3564 H         1 <0>         0.1191
     55 H18        -4.8022   10.3810    1.6102 H         1 <0>         0.1306
     56 H19        -3.5650   11.4161   -3.0630 H         1 <0>         0.1317
     57 H20        -4.5078   13.9582   -1.8041 H         1 <0>         0.3783
     58 H21        -5.2889   13.3018    1.1700 H         1 <0>         0.3798
     59 H22         0.9026    1.3142   -3.4017 H         1 <0>         0.3832
     60 H23         3.2832    1.4760   -1.3533 H         1 <0>         0.3833
@<TRIPOS>BOND
     1    1    6 ar
     2    1    2 ar
     3    1   38 1
     4    2    3 ar
     5    2   39 1
     6    3    4 ar
     7    3   37 1
     8    4    5 ar
     9    4   36 1
    10    5    6 ar
    11    5   40 1
    12    6    7 1
    13    7    8 2
    14    7   41 1
    15    8    9 1
    16    8   42 1
    17    9   10 2
    18    9   11 1
    19   11   12 1
    20   12   17 1
    21   12   13 1
    22   12   43 1
    23   13   14 1
    24   13   44 1
    25   13   45 1
    26   14   15 1
    27   14   20 1
    28   14   23 1
    29   15   16 1
    30   15   46 1
    31   15   47 1
    32   16   17 1
    33   16   19 1
    34   16   48 1
    35   17   18 1
    36   17   49 1
    37   18   50 1
    38   19   51 1
    39   20   21 2
    40   20   22 1
    41   23   24 1
    42   24   25 2
    43   24   26 1
    44   26   27 2
    45   26   52 1
    46   27   28 1
    47   27   53 1
    48   28   33 ar
    49   28   29 ar
    50   29   30 ar
    51   29   54 1
    52   30   31 ar
    53   30   55 1
    54   31   32 ar
    55   31   35 1
    56   32   33 ar
    57   32   34 1
    58   33   56 1
    59   34   57 1
    60   35   58 1
    61   36   59 1
    62   37   60 1
@<TRIPOS>MOLECULE
CHEMBL431948__9
   60    62     0     0     0
SMALL
USER_CHARGES

@<TRIPOS>ATOM
      1 C1         -1.5636    1.0484    2.5002 C.ar      1 <0>        -0.0577
      2 C2         -0.5520    1.7482    3.1208 C.ar      1 <0>        -0.1316
      3 C3          0.7636    1.5864    2.7081 C.ar      1 <0>         0.0891
      4 C4          1.0688    0.7150    1.6625 C.ar      1 <0>         0.0749
      5 C5          0.0616    0.0098    1.0350 C.ar      1 <0>        -0.1086
      6 C6         -1.2656    0.1719    1.4508 C.ar      1 <0>        -0.0566
      7 C7         -2.3424   -0.5762    0.7872 C.2       1 <0>        -0.0097
      8 C8         -3.4641    0.0636    0.3902 C.2       1 <0>        -0.1866
      9 C9         -3.4768    1.4780    0.2931 C.2       1 <0>         0.4833
     10 O1         -2.4479    2.1077    0.4504 O.2       1 <0>        -0.4986
     11 O2         -4.6301    2.1256    0.0263 O.3       1 <0>        -0.3299
     12 C10        -4.5694    3.5509   -0.0572 C.3       1 <0>         0.1052
     13 C11        -5.6363    4.0504   -1.0336 C.3       1 <0>        -0.0820
     14 C12        -5.5713    5.5764   -1.1230 C.3       1 <0>         0.0683
     15 C13        -5.8235    6.1795    0.2603 C.3       1 <0>        -0.1201
     16 C14        -4.7567    5.6800    1.2366 C.3       1 <0>         0.0799
     17 C15        -4.8216    4.1540    1.3261 C.3       1 <0>         0.0674
     18 O3         -6.1142    3.7586    1.7897 O.3       1 <0>        -0.5404
     19 O4         -4.9922    6.2434    2.5286 O.3       1 <0>        -0.5563
     20 C16        -6.6221    6.0683   -2.0847 C.2       1 <0>         0.5010
     21 O5         -7.7999    5.8356   -1.8722 O.co2     1 <0>        -0.6811
     22 O6         -6.2945    6.6991   -3.0753 O.co2     1 <0>        -0.6672
     23 O7         -4.2787    5.9718   -1.5867 O.3       1 <0>        -0.3472
     24 C17        -4.0550    7.2955   -1.7221 C.2       1 <0>         0.4886
     25 O8         -4.9346    8.0916   -1.4534 O.2       1 <0>        -0.4645
     26 C18        -2.7947    7.7585   -2.1775 C.2       1 <0>        -0.1698
     27 C19        -2.5260    9.0824   -2.1910 C.2       1 <0>        -0.0308
     28 C20        -3.3792   10.0130   -1.4387 C.ar      1 <0>        -0.0458
     29 C21        -3.7312    9.7281   -0.1142 C.ar      1 <0>        -0.0520
     30 C22        -4.5309   10.6020    0.5885 C.ar      1 <0>        -0.1297
     31 C23        -4.9898   11.7663   -0.0135 C.ar      1 <0>         0.0843
     32 C24        -4.6435   12.0572   -1.3327 C.ar      1 <0>         0.0731
     33 C25        -3.8375   11.1897   -2.0428 C.ar      1 <0>        -0.1101
     34 O9         -5.0953   13.1986   -1.9181 O.3       1 <0>        -0.4861
     35 O10        -5.7785   12.6239    0.6844 O.3       1 <0>        -0.4866
     36 O11         2.3589    0.5603    1.2610 O.3       1 <0>        -0.4866
     37 O12         1.7565    2.2790    3.3238 O.3       1 <0>        -0.4872
     38 H1         -2.5856    1.1730    2.8263 H         1 <0>         0.1223
     39 H2         -0.7831    2.4247    3.9304 H         1 <0>         0.1323
     40 H3          0.2967   -0.6653    0.2253 H         1 <0>         0.1344
     41 H4         -2.2371   -1.6375    0.6169 H         1 <0>         0.1492
     42 H5         -4.3511   -0.5024    0.1467 H         1 <0>         0.1499
     43 H6         -3.5835    3.8525   -0.4109 H         1 <0>         0.1014
     44 H7         -5.4566    3.6207   -2.0191 H         1 <0>         0.0754
     45 H8         -6.6222    3.7488   -0.6799 H         1 <0>         0.1071
     46 H9         -5.7772    7.2667    0.1965 H         1 <0>         0.0943
     47 H10        -6.8094    5.8779    0.6139 H         1 <0>         0.0923
     48 H11        -3.7707    5.9816    0.8830 H         1 <0>         0.0592
     49 H12        -4.0616    3.7982    2.0217 H         1 <0>         0.0531
     50 H13        -6.3419    4.1056    2.6631 H         1 <0>         0.3755
     51 H14        -4.3522    5.9694    3.1997 H         1 <0>         0.3687
     52 H15        -2.0495    7.0528   -2.5137 H         1 <0>         0.1399
     53 H16        -1.6843    9.4569   -2.7545 H         1 <0>         0.1439
     54 H17        -3.3761    8.8232    0.3564 H         1 <0>         0.1194
     55 H18        -4.8022   10.3810    1.6102 H         1 <0>         0.1309
     56 H19        -3.5650   11.4161   -3.0630 H         1 <0>         0.1320
     57 H20        -4.5078   13.9582   -1.8041 H         1 <0>         0.3788
     58 H21        -5.2889   13.3018    1.1700 H         1 <0>         0.3798
     59 H22         2.8332   -0.1437    1.7240 H         1 <0>         0.3834
     60 H23         2.1447    1.8203    4.0814 H         1 <0>         0.3847
@<TRIPOS>BOND
     1    1    6 ar
     2    1    2 ar
     3    1   38 1
     4    2    3 ar
     5    2   39 1
     6    3    4 ar
     7    3   37 1
     8    4    5 ar
     9    4   36 1
    10    5    6 ar
    11    5   40 1
    12    6    7 1
    13    7    8 2
    14    7   41 1
    15    8    9 1
    16    8   42 1
    17    9   10 2
    18    9   11 1
    19   11   12 1
    20   12   17 1
    21   12   13 1
    22   12   43 1
    23   13   14 1
    24   13   44 1
    25   13   45 1
    26   14   15 1
    27   14   20 1
    28   14   23 1
    29   15   16 1
    30   15   46 1
    31   15   47 1
    32   16   17 1
    33   16   19 1
    34   16   48 1
    35   17   18 1
    36   17   49 1
    37   18   50 1
    38   19   51 1
    39   20   21 2
    40   20   22 1
    41   23   24 1
    42   24   25 2
    43   24   26 1
    44   26   27 2
    45   26   52 1
    46   27   28 1
    47   27   53 1
    48   28   33 ar
    49   28   29 ar
    50   29   30 ar
    51   29   54 1
    52   30   31 ar
    53   30   55 1
    54   31   32 ar
    55   31   35 1
    56   32   33 ar
    57   32   34 1
    58   33   56 1
    59   34   57 1
    60   35   58 1
    61   36   59 1
    62   37   60 1
@<TRIPOS>MOLECULE
CHEMBL431948__10
   60    62     0     0     0
SMALL
USER_CHARGES

@<TRIPOS>ATOM
      1 C1          0.1888    0.1723    1.0078 C.ar      1 <0>        -0.0911
      2 C2          1.3512    0.8213    0.6526 C.ar      1 <0>        -0.1308
      3 C3          1.4704    1.4021   -0.6027 C.ar      1 <0>         0.0830
      4 C4          0.4142    1.3324   -1.5112 C.ar      1 <0>         0.0871
      5 C5         -0.7540    0.6842   -1.1638 C.ar      1 <0>        -0.0941
      6 C6         -0.8751    0.0977    0.1019 C.ar      1 <0>        -0.0465
      7 C7         -2.1159   -0.5942    0.4777 C.2       1 <0>        -0.0194
      8 C8         -3.2971    0.0590    0.4218 C.2       1 <0>        -0.1797
      9 C9         -3.3212    1.4733    0.3262 C.2       1 <0>         0.4839
     10 O1         -2.2889    2.1079    0.4333 O.2       1 <0>        -0.4707
     11 O2         -4.4892    2.1156    0.1164 O.3       1 <0>        -0.3483
     12 C10        -4.4395    3.5411    0.0307 C.3       1 <0>         0.1108
     13 C11        -5.5551    4.0358   -0.8921 C.3       1 <0>        -0.0835
     14 C12        -5.5018    5.5621   -0.9839 C.3       1 <0>         0.0708
     15 C13        -5.6889    6.1637    0.4104 C.3       1 <0>        -0.1324
     16 C14        -4.5733    5.6690    1.3332 C.3       1 <0>         0.0870
     17 C15        -4.6266    4.1427    1.4250 C.3       1 <0>         0.0581
     18 O3         -3.5846    3.6807    2.2869 O.3       1 <0>        -0.5517
     19 O4         -3.3068    6.0707    0.8072 O.3       1 <0>        -0.5418
     20 C16        -6.6007    6.0494   -1.8928 C.2       1 <0>         0.4969
     21 O5         -7.7655    5.8110   -1.6231 O.co2     1 <0>        -0.6896
     22 O6         -6.3248    6.6820   -2.8979 O.co2     1 <0>        -0.6660
     23 O7         -4.2353    5.9638   -1.5099 O.3       1 <0>        -0.3230
     24 C17        -4.0247    7.2886   -1.6554 C.2       1 <0>         0.5073
     25 O8         -4.8939    8.0805   -1.3436 O.2       1 <0>        -0.4807
     26 C18        -2.7904    7.7577   -2.1717 C.2       1 <0>        -0.1533
     27 C19        -2.5260    9.0824   -2.1910 C.2       1 <0>        -0.0450
     28 C20        -3.3792   10.0130   -1.4387 C.ar      1 <0>        -0.0424
     29 C21        -3.7312    9.7281   -0.1142 C.ar      1 <0>        -0.0402
     30 C22        -4.5309   10.6020    0.5885 C.ar      1 <0>        -0.1376
     31 C23        -4.9898   11.7663   -0.0135 C.ar      1 <0>         0.0823
     32 C24        -4.6435   12.0572   -1.3327 C.ar      1 <0>         0.0681
     33 C25        -3.8375   11.1897   -2.0428 C.ar      1 <0>        -0.1126
     34 O9         -5.0953   13.1986   -1.9181 O.3       1 <0>        -0.4869
     35 O10        -5.7785   12.6239    0.6844 O.3       1 <0>        -0.4879
     36 O11         0.5353    1.9036   -2.7395 O.3       1 <0>        -0.4835
     37 O12         2.6187    2.0404   -0.9471 O.3       1 <0>        -0.4872
     38 H1          0.1005   -0.2824    1.9834 H         1 <0>         0.1286
     39 H2          2.1715    0.8786    1.3526 H         1 <0>         0.1314
     40 H3         -1.5724    0.6296   -1.8664 H         1 <0>         0.1276
     41 H4         -2.0835   -1.6249    0.7987 H         1 <0>         0.1475
     42 H5         -4.2231   -0.4962    0.4499 H         1 <0>         0.1451
     43 H6         -3.4734    3.8475   -0.3705 H         1 <0>         0.1045
     44 H7         -5.4218    3.6072   -1.8854 H         1 <0>         0.0797
     45 H8         -6.5211    3.7294   -0.4908 H         1 <0>         0.0936
     46 H9         -5.6510    7.2511    0.3450 H         1 <0>         0.0998
     47 H10        -6.6550    5.8573    0.8117 H         1 <0>         0.0895
     48 H11        -4.7066    6.0976    2.3265 H         1 <0>         0.0539
     49 H12        -5.5926    3.8363    1.8262 H         1 <0>         0.0669
     50 H13        -3.6402    4.0229    3.1896 H         1 <0>         0.3697
     51 H14        -2.5518    5.7905    1.3425 H         1 <0>         0.3707
     52 H15        -2.0615    7.0560   -2.5495 H         1 <0>         0.1363
     53 H16        -1.6877    9.4575   -2.7592 H         1 <0>         0.1399
     54 H17        -3.3761    8.8232    0.3564 H         1 <0>         0.1276
     55 H18        -4.8022   10.3810    1.6102 H         1 <0>         0.1267
     56 H19        -3.5650   11.4161   -3.0630 H         1 <0>         0.1302
     57 H20        -4.5078   13.9582   -1.8041 H         1 <0>         0.3773
     58 H21        -5.2889   13.3018    1.1700 H         1 <0>         0.3785
     59 H22         0.8953    1.3122   -3.4145 H         1 <0>         0.3829
     60 H23         3.2762    1.4684   -1.3661 H         1 <0>         0.3830
@<TRIPOS>BOND
     1    1    6 ar
     2    1    2 ar
     3    1   38 1
     4    2    3 ar
     5    2   39 1
     6    3    4 ar
     7    3   37 1
     8    4    5 ar
     9    4   36 1
    10    5    6 ar
    11    5   40 1
    12    6    7 1
    13    7    8 2
    14    7   41 1
    15    8    9 1
    16    8   42 1
    17    9   10 2
    18    9   11 1
    19   11   12 1
    20   12   17 1
    21   12   13 1
    22   12   43 1
    23   13   14 1
    24   13   44 1
    25   13   45 1
    26   14   15 1
    27   14   20 1
    28   14   23 1
    29   15   16 1
    30   15   46 1
    31   15   47 1
    32   16   17 1
    33   16   19 1
    34   16   48 1
    35   17   18 1
    36   17   49 1
    37   18   50 1
    38   19   51 1
    39   20   21 2
    40   20   22 1
    41   23   24 1
    42   24   25 2
    43   24   26 1
    44   26   27 2
    45   26   52 1
    46   27   28 1
    47   27   53 1
    48   28   33 ar
    49   28   29 ar
    50   29   30 ar
    51   29   54 1
    52   30   31 ar
    53   30   55 1
    54   31   32 ar
    55   31   35 1
    56   32   33 ar
    57   32   34 1
    58   33   56 1
    59   34   57 1
    60   35   58 1
    61   36   59 1
    62   37   60 1
@<TRIPOS>MOLECULE
CHEMBL431948__11
   60    62     0     0     0
SMALL
USER_CHARGES

@<TRIPOS>ATOM
      1 C1         -1.5656    1.0450    2.4953 C.ar      1 <0>        -0.0574
      2 C2         -0.5538    1.7440    3.1164 C.ar      1 <0>        -0.1315
      3 C3          0.7618    1.5819    2.7036 C.ar      1 <0>         0.0890
      4 C4          1.0666    0.7110    1.6576 C.ar      1 <0>         0.0752
      5 C5          0.0592    0.0066    1.0295 C.ar      1 <0>        -0.1087
      6 C6         -1.2680    0.1690    1.4454 C.ar      1 <0>        -0.0555
      7 C7         -2.3451   -0.5782    0.7813 C.2       1 <0>        -0.0115
      8 C8         -3.4666    0.0622    0.3848 C.2       1 <0>        -0.1861
      9 C9         -3.4788    1.4767    0.2887 C.2       1 <0>         0.4826
     10 O1         -2.4496    2.1059    0.4460 O.2       1 <0>        -0.4974
     11 O2         -4.6319    2.1249    0.0227 O.3       1 <0>        -0.3342
     12 C10        -4.5707    3.5502   -0.0600 C.3       1 <0>         0.1081
     13 C11        -5.6377    4.0507   -1.0357 C.3       1 <0>        -0.0805
     14 C12        -5.5722    5.5768   -1.1242 C.3       1 <0>         0.0733
     15 C13        -5.8237    6.1791    0.2596 C.3       1 <0>        -0.1257
     16 C14        -4.7568    5.6786    1.2353 C.3       1 <0>         0.0836
     17 C15        -4.8223    4.1526    1.3238 C.3       1 <0>         0.0656
     18 O3         -6.1149    3.7573    1.7875 O.3       1 <0>        -0.5416
     19 O4         -3.4642    6.0738    0.7716 O.3       1 <0>        -0.5419
     20 C16        -6.6231    6.0698   -2.0852 C.2       1 <0>         0.4966
     21 O5         -7.8009    5.8373   -1.8725 O.co2     1 <0>        -0.6877
     22 O6         -6.2955    6.7011   -3.0755 O.co2     1 <0>        -0.6693
     23 O7         -4.2796    5.9720   -1.5879 O.3       1 <0>        -0.3277
     24 C17        -4.0554    7.2957   -1.7225 C.2       1 <0>         0.5057
     25 O8         -4.9347    8.0920   -1.4530 O.2       1 <0>        -0.4794
     26 C18        -2.7951    7.7585   -2.1780 C.2       1 <0>        -0.1539
     27 C19        -2.5260    9.0824   -2.1910 C.2       1 <0>        -0.0453
     28 C20        -3.3792   10.0130   -1.4387 C.ar      1 <0>        -0.0388
     29 C21        -3.7312    9.7281   -0.1142 C.ar      1 <0>        -0.0489
     30 C22        -4.5309   10.6020    0.5885 C.ar      1 <0>        -0.1347
     31 C23        -4.9898   11.7663   -0.0135 C.ar      1 <0>         0.0809
     32 C24        -4.6435   12.0572   -1.3327 C.ar      1 <0>         0.0711
     33 C25        -3.8375   11.1897   -2.0428 C.ar      1 <0>        -0.1128
     34 O9         -5.0953   13.1986   -1.9181 O.3       1 <0>        -0.4868
     35 O10        -5.7785   12.6239    0.6844 O.3       1 <0>        -0.4877
     36 O11         2.3567    0.5561    1.2560 O.3       1 <0>        -0.4866
     37 O12         1.7549    2.2738    3.3198 O.3       1 <0>        -0.4872
     38 H1         -2.5876    1.1698    2.8214 H         1 <0>         0.1217
     39 H2         -0.7847    2.4201    3.9263 H         1 <0>         0.1319
     40 H3          0.2940   -0.6680    0.2195 H         1 <0>         0.1341
     41 H4         -2.2401   -1.6394    0.6102 H         1 <0>         0.1486
     42 H5         -4.3538   -0.5033    0.1411 H         1 <0>         0.1489
     43 H6         -3.5848    3.8517   -0.4137 H         1 <0>         0.1087
     44 H7         -5.4585    3.6216   -2.0215 H         1 <0>         0.0709
     45 H8         -6.6236    3.7493   -0.6820 H         1 <0>         0.1014
     46 H9         -5.7771    7.2663    0.1965 H         1 <0>         0.0947
     47 H10        -6.8097    5.8777    0.6133 H         1 <0>         0.0949
     48 H11        -4.9360    6.1077    2.2211 H         1 <0>         0.0547
     49 H12        -4.0622    3.7960    2.0189 H         1 <0>         0.0523
     50 H13        -6.3422    4.1038    2.6612 H         1 <0>         0.3719
     51 H14        -2.7376    5.7897    1.3428 H         1 <0>         0.3672
     52 H15        -2.0501    7.0528   -2.5147 H         1 <0>         0.1358
     53 H16        -1.6840    9.4568   -2.7541 H         1 <0>         0.1401
     54 H17        -3.3761    8.8232    0.3564 H         1 <0>         0.1278
     55 H18        -4.8022   10.3810    1.6102 H         1 <0>         0.1270
     56 H19        -3.5650   11.4161   -3.0630 H         1 <0>         0.1305
     57 H20        -4.5078   13.9582   -1.8041 H         1 <0>         0.3778
     58 H21        -5.2889   13.3018    1.1700 H         1 <0>         0.3786
     59 H22         2.8307   -0.1485    1.7186 H         1 <0>         0.3833
     60 H23         2.1428    1.8144    4.0772 H         1 <0>         0.3844
@<TRIPOS>BOND
     1    1    6 ar
     2    1    2 ar
     3    1   38 1
     4    2    3 ar
     5    2   39 1
     6    3    4 ar
     7    3   37 1
     8    4    5 ar
     9    4   36 1
    10    5    6 ar
    11    5   40 1
    12    6    7 1
    13    7    8 2
    14    7   41 1
    15    8    9 1
    16    8   42 1
    17    9   10 2
    18    9   11 1
    19   11   12 1
    20   12   17 1
    21   12   13 1
    22   12   43 1
    23   13   14 1
    24   13   44 1
    25   13   45 1
    26   14   15 1
    27   14   20 1
    28   14   23 1
    29   15   16 1
    30   15   46 1
    31   15   47 1
    32   16   17 1
    33   16   19 1
    34   16   48 1
    35   17   18 1
    36   17   49 1
    37   18   50 1
    38   19   51 1
    39   20   21 2
    40   20   22 1
    41   23   24 1
    42   24   25 2
    43   24   26 1
    44   26   27 2
    45   26   52 1
    46   27   28 1
    47   27   53 1
    48   28   33 ar
    49   28   29 ar
    50   29   30 ar
    51   29   54 1
    52   30   31 ar
    53   30   55 1
    54   31   32 ar
    55   31   35 1
    56   32   33 ar
    57   32   34 1
    58   33   56 1
    59   34   57 1
    60   35   58 1
    61   36   59 1
    62   37   60 1
@<TRIPOS>MOLECULE
CHEMBL431948__12
   60    62     0     0     0
SMALL
USER_CHARGES

@<TRIPOS>ATOM
      1 C1          0.6675    0.3237    2.4273 C.ar      1 <0>        -0.0919
      2 C2          1.7963    1.0551    2.1285 C.ar      1 <0>        -0.1311
      3 C3          1.8869    1.7373    0.9228 C.ar      1 <0>         0.0839
      4 C4          0.8357    1.6865    0.0073 C.ar      1 <0>         0.0895
      5 C5         -0.2990    0.9562    0.2983 C.ar      1 <0>        -0.0933
      6 C6         -0.3912    0.2674    1.5139 C.ar      1 <0>        -0.0490
      7 C7         -1.5962   -0.5123    1.8296 C.2       1 <0>        -0.0204
      8 C8         -2.8083    0.0842    1.8206 C.2       1 <0>        -0.1776
      9 C9         -2.9024    1.4988    1.8359 C.2       1 <0>         0.4782
     10 O1         -1.9025    2.1732    1.9946 O.2       1 <0>        -0.4576
     11 O2         -4.1010    2.0970    1.6743 O.3       1 <0>        -0.3541
     12 C10        -4.1218    3.5256    1.7005 C.3       1 <0>         0.0917
     13 C11        -5.2620    4.0353    0.8167 C.3       1 <0>        -0.0828
     14 C12        -5.2843    5.5649    0.8447 C.3       1 <0>         0.0580
     15 C13        -5.4987    6.0456    2.2814 C.3       1 <0>        -0.1211
     16 C14        -4.3585    5.5359    3.1652 C.3       1 <0>         0.0689
     17 C15        -4.3362    4.0063    3.1371 C.3       1 <0>         0.0735
     18 O3         -3.2713    3.5303    3.9626 O.3       1 <0>        -0.5465
     19 O4         -4.5587    5.9848    4.5069 O.3       1 <0>        -0.5692
     20 C16        -3.9722    6.0960    0.3278 C.2       1 <0>         0.4974
     21 O5         -3.9509    6.8154   -0.6563 O.co2     1 <0>        -0.6631
     22 O6         -2.9318    5.8062    0.8937 O.co2     1 <0>        -0.6653
     23 O7         -6.3493    6.0409    0.0193 O.3       1 <0>        -0.3385
     24 C17        -6.5076    7.3782   -0.0657 C.2       1 <0>         0.4897
     25 O8         -5.7608    8.1192    0.5452 O.2       1 <0>        -0.4679
     26 C18        -7.5443    7.9198   -0.8669 C.2       1 <0>        -0.1771
     27 C19        -7.6209    9.2546   -1.0609 C.2       1 <0>        -0.0212
     28 C20        -6.4957   10.1186   -0.6773 C.ar      1 <0>        -0.0696
     29 C21        -5.1891    9.7725   -1.0412 C.ar      1 <0>        -0.0191
     30 C22        -4.1364   10.5841   -0.6804 C.ar      1 <0>        -0.1279
     31 C23        -4.3673   11.7460    0.0442 C.ar      1 <0>         0.0879
     32 C24        -5.6660   12.0977    0.4106 C.ar      1 <0>         0.0569
     33 C25        -6.7279   11.2930    0.0481 C.ar      1 <0>        -0.1138
     34 O9         -5.8872   13.2366    1.1202 O.3       1 <0>        -0.4885
     35 O10        -3.3250   12.5420    0.3975 O.3       1 <0>        -0.4883
     36 O11         0.9286    2.3571   -1.1722 O.3       1 <0>        -0.4802
     37 O12         3.0021    2.4565    0.6340 O.3       1 <0>        -0.4854
     38 H1          0.6017   -0.2096    3.3641 H         1 <0>         0.1282
     39 H2          2.6126    1.0981    2.8343 H         1 <0>         0.1312
     40 H3         -1.1135    0.9161   -0.4098 H         1 <0>         0.1270
     41 H4         -1.5127   -1.5622    2.0688 H         1 <0>         0.1467
     42 H5         -3.7056   -0.5165    1.8018 H         1 <0>         0.1433
     43 H6         -3.1728    3.9097    1.3266 H         1 <0>         0.1448
     44 H7         -5.1093    3.6928   -0.2068 H         1 <0>         0.0805
     45 H8         -6.2111    3.6512    1.1906 H         1 <0>         0.0695
     46 H9         -5.5146    7.1353    2.3013 H         1 <0>         0.0963
     47 H10        -6.4478    5.6614    2.6552 H         1 <0>         0.0564
     48 H11        -3.4094    5.9200    2.7913 H         1 <0>         0.1176
     49 H12        -5.2853    3.6222    3.5110 H         1 <0>         0.0524
     50 H13        -3.3422    3.7977    4.8892 H         1 <0>         0.3641
     51 H14        -3.8718    5.6981    5.1242 H         1 <0>         0.3681
     52 H15        -8.2728    7.2653   -1.3223 H         1 <0>         0.1403
     53 H16        -8.5090    9.6867   -1.4978 H         1 <0>         0.1418
     54 H17        -5.0065    8.8693   -1.6045 H         1 <0>         0.1398
     55 H18        -3.1287   10.3159   -0.9614 H         1 <0>         0.1321
     56 H19        -7.7346   11.5667    0.3275 H         1 <0>         0.1274
     57 H20        -6.0414   14.0180    0.5718 H         1 <0>         0.3762
     58 H21        -3.1130   13.2246   -0.2538 H         1 <0>         0.3796
     59 H22         1.3177    1.8387   -1.8898 H         1 <0>         0.3804
     60 H23         3.6874    1.9522    0.1744 H         1 <0>         0.3812
@<TRIPOS>BOND
     1    1    6 ar
     2    1    2 ar
     3    1   38 1
     4    2    3 ar
     5    2   39 1
     6    3    4 ar
     7    3   37 1
     8    4    5 ar
     9    4   36 1
    10    5    6 ar
    11    5   40 1
    12    6    7 1
    13    7    8 2
    14    7   41 1
    15    8    9 1
    16    8   42 1
    17    9   10 2
    18    9   11 1
    19   11   12 1
    20   12   17 1
    21   12   13 1
    22   12   43 1
    23   13   14 1
    24   13   44 1
    25   13   45 1
    26   14   15 1
    27   14   20 1
    28   14   23 1
    29   15   16 1
    30   15   46 1
    31   15   47 1
    32   16   17 1
    33   16   19 1
    34   16   48 1
    35   17   18 1
    36   17   49 1
    37   18   50 1
    38   19   51 1
    39   20   21 2
    40   20   22 1
    41   23   24 1
    42   24   25 2
    43   24   26 1
    44   26   27 2
    45   26   52 1
    46   27   28 1
    47   27   53 1
    48   28   33 ar
    49   28   29 ar
    50   29   30 ar
    51   29   54 1
    52   30   31 ar
    53   30   55 1
    54   31   32 ar
    55   31   35 1
    56   32   33 ar
    57   32   34 1
    58   33   56 1
    59   34   57 1
    60   35   58 1
    61   36   59 1
    62   37   60 1
@<TRIPOS>MOLECULE
CHEMBL431948__13
   60    62     0     0     0
SMALL
USER_CHARGES

@<TRIPOS>ATOM
      1 C1          0.7573   -0.7076   -1.4741 C.ar      1 <0>        -0.0923
      2 C2          1.7793   -0.0416   -2.1147 C.ar      1 <0>        -0.1306
      3 C3          1.4920    0.9375   -3.0560 C.ar      1 <0>         0.0795
      4 C4          0.1673    1.2530   -3.3582 C.ar      1 <0>         0.0843
      5 C5         -0.8630    0.5909   -2.7213 C.ar      1 <0>        -0.0944
      6 C6         -0.5743   -0.3971   -1.7720 C.ar      1 <0>        -0.0394
      7 C7         -1.6665   -1.1061   -1.0907 C.2       1 <0>        -0.0308
      8 C8         -2.6015   -0.4098   -0.4082 C.2       1 <0>        -0.1683
      9 C9         -2.3666    0.9459   -0.0662 C.2       1 <0>         0.4769
     10 O1         -1.2740    1.4427   -0.2646 O.2       1 <0>        -0.4881
     11 O2         -3.3548    1.6852    0.4794 O.3       1 <0>        -0.2920
     12 C10        -3.0479    3.0437    0.7991 C.3       1 <0>         0.1142
     13 C11        -4.3138    3.8945    0.6788 C.3       1 <0>        -0.0897
     14 C12        -5.3750    3.3697    1.6480 C.3       1 <0>         0.0706
     15 C13        -4.8416    3.4487    3.0798 C.3       1 <0>        -0.1299
     16 C14        -3.5757    2.5979    3.2001 C.3       1 <0>         0.0876
     17 C15        -2.5145    3.1227    2.2309 C.3       1 <0>         0.0536
     18 O3         -1.3321    2.3281    2.3433 O.3       1 <0>        -0.5512
     19 O4         -3.8826    1.2394    2.8804 O.3       1 <0>        -0.5272
     20 C16        -6.6219    4.2077    1.5295 C.2       1 <0>         0.4963
     21 O5         -7.6757    3.6895    1.2016 O.co2     1 <0>        -0.6697
     22 O6         -6.5769    5.4038    1.7615 O.co2     1 <0>        -0.6933
     23 O7         -5.6819    2.0111    1.3283 O.3       1 <0>        -0.3007
     24 C17        -6.6066    1.3955    2.0941 C.2       1 <0>         0.5032
     25 O8         -7.1374    1.9971    3.0085 O.2       1 <0>        -0.4883
     26 C18        -6.9597    0.0474    1.8331 C.2       1 <0>        -0.1559
     27 C19        -7.9784   -0.5272    2.5093 C.2       1 <0>        -0.0433
     28 C20        -8.8898    0.3027    3.3094 C.ar      1 <0>        -0.0577
     29 C21        -9.4282    1.4761    2.7684 C.ar      1 <0>        -0.0171
     30 C22       -10.2821    2.2520    3.5206 C.ar      1 <0>        -0.1290
     31 C23       -10.6110    1.8737    4.8157 C.ar      1 <0>         0.0831
     32 C24       -10.0787    0.7062    5.3619 C.ar      1 <0>         0.0556
     33 C25        -9.2265   -0.0808    4.6130 C.ar      1 <0>        -0.1174
     34 O9        -10.4037    0.3397    6.6306 O.3       1 <0>        -0.4897
     35 O10       -11.4532    2.6432    5.5527 O.3       1 <0>        -0.4893
     36 O11        -0.1094    2.2136   -4.2803 O.3       1 <0>        -0.4859
     37 O12         2.5037    1.5905   -3.6842 O.3       1 <0>        -0.4882
     38 H1          0.9838   -1.4719   -0.7455 H         1 <0>         0.1286
     39 H2          2.8066   -0.2818   -1.8837 H         1 <0>         0.1307
     40 H3         -1.8890    0.8344   -2.9545 H         1 <0>         0.1275
     41 H4         -1.7216   -2.1837   -1.1357 H         1 <0>         0.1458
     42 H5         -3.5281   -0.8858   -0.1230 H         1 <0>         0.1465
     43 H6         -2.2919    3.4176    0.1086 H         1 <0>         0.0814
     44 H7         -4.0797    4.9307    0.9226 H         1 <0>         0.1029
     45 H8         -4.6938    3.8382   -0.3413 H         1 <0>         0.0803
     46 H9         -4.6075    4.4849    3.3237 H         1 <0>         0.0841
     47 H10        -5.5976    3.0748    3.7703 H         1 <0>         0.0972
     48 H11        -3.1957    2.6542    4.2202 H         1 <0>         0.0457
     49 H12        -2.2804    4.1589    2.4748 H         1 <0>         0.0708
     50 H13        -0.9385    2.3314    3.2265 H         1 <0>         0.3699
     51 H14        -3.1247    0.6413    2.9360 H         1 <0>         0.3598
     52 H15        -6.4142   -0.5202    1.0937 H         1 <0>         0.1337
     53 H16        -8.1230   -1.5964    2.4618 H         1 <0>         0.1360
     54 H17        -9.1740    1.7729    1.7616 H         1 <0>         0.1389
     55 H18       -10.6967    3.1573    3.1023 H         1 <0>         0.1301
     56 H19        -8.8171   -0.9875    5.0334 H         1 <0>         0.1252
     57 H20       -11.1865   -0.2249    6.6886 H         1 <0>         0.3752
     58 H21       -12.3862    2.4077    5.4572 H         1 <0>         0.3782
     59 H22        -0.1897    1.8795   -5.1843 H         1 <0>         0.3828
     60 H23         2.7965    1.1673   -4.5029 H         1 <0>         0.3826
@<TRIPOS>BOND
     1    1    6 ar
     2    1    2 ar
     3    1   38 1
     4    2    3 ar
     5    2   39 1
     6    3    4 ar
     7    3   37 1
     8    4    5 ar
     9    4   36 1
    10    5    6 ar
    11    5   40 1
    12    6    7 1
    13    7    8 2
    14    7   41 1
    15    8    9 1
    16    8   42 1
    17    9   10 2
    18    9   11 1
    19   11   12 1
    20   12   17 1
    21   12   13 1
    22   12   43 1
    23   13   14 1
    24   13   44 1
    25   13   45 1
    26   14   15 1
    27   14   20 1
    28   14   23 1
    29   15   16 1
    30   15   46 1
    31   15   47 1
    32   16   17 1
    33   16   19 1
    34   16   48 1
    35   17   18 1
    36   17   49 1
    37   18   50 1
    38   19   51 1
    39   20   21 2
    40   20   22 1
    41   23   24 1
    42   24   25 2
    43   24   26 1
    44   26   27 2
    45   26   52 1
    46   27   28 1
    47   27   53 1
    48   28   33 ar
    49   28   29 ar
    50   29   30 ar
    51   29   54 1
    52   30   31 ar
    53   30   55 1
    54   31   32 ar
    55   31   35 1
    56   32   33 ar
    57   32   34 1
    58   33   56 1
    59   34   57 1
    60   35   58 1
    61   36   59 1
    62   37   60 1
@<TRIPOS>MOLECULE
CHEMBL431948__14
   60    62     0     0     0
SMALL
USER_CHARGES

@<TRIPOS>ATOM
      1 C1          0.1797   -0.4628    0.5541 C.ar      1 <0>        -0.0579
      2 C2          1.4954   -0.1107    0.7618 C.ar      1 <0>        -0.1310
      3 C3          2.4016   -0.1465   -0.2893 C.ar      1 <0>         0.0884
      4 C4          1.9852   -0.5385   -1.5616 C.ar      1 <0>         0.0747
      5 C5          0.6689   -0.8929   -1.7788 C.ar      1 <0>        -0.1092
      6 C6         -0.2458   -0.8577   -0.7192 C.ar      1 <0>        -0.0555
      7 C7         -1.6484   -1.2342   -0.9436 C.2       1 <0>        -0.0118
      8 C8         -2.6422   -0.4453   -0.4797 C.2       1 <0>        -0.1843
      9 C9         -2.3643    0.8891   -0.0893 C.2       1 <0>         0.4785
     10 O1         -1.2606    1.3623   -0.2835 O.2       1 <0>        -0.5000
     11 O2         -3.3241    1.6341    0.4976 O.3       1 <0>        -0.3091
     12 C10        -2.9745    2.9701    0.8649 C.3       1 <0>         0.1031
     13 C11        -4.2171    3.8600    0.7946 C.3       1 <0>        -0.0837
     14 C12        -5.2805    3.3281    1.7574 C.3       1 <0>         0.0678
     15 C13        -4.7271    3.3367    3.1838 C.3       1 <0>        -0.1179
     16 C14        -3.4846    2.4467    3.2541 C.3       1 <0>         0.0787
     17 C15        -2.4211    2.9786    2.2913 C.3       1 <0>         0.0685
     18 O3         -2.0716    4.3147    2.6586 O.3       1 <0>        -0.5446
     19 O4         -2.9677    2.4547    4.5863 O.3       1 <0>        -0.5603
     20 C16        -6.5044    4.2046    1.6882 C.2       1 <0>         0.5001
     21 O5         -7.5766    3.7293    1.3551 O.co2     1 <0>        -0.6699
     22 O6         -6.4224    5.3891    1.9651 O.co2     1 <0>        -0.6854
     23 O7         -5.6301    1.9921    1.3901 O.3       1 <0>        -0.3240
     24 C17        -6.5623    1.3734    2.1444 C.2       1 <0>         0.4841
     25 O8         -7.0641    1.9539    3.0884 O.2       1 <0>        -0.4727
     26 C18        -6.9569    0.0469    1.8368 C.2       1 <0>        -0.1727
     27 C19        -7.9784   -0.5272    2.5093 C.2       1 <0>        -0.0290
     28 C20        -8.8898    0.3027    3.3094 C.ar      1 <0>        -0.0621
     29 C21        -9.4282    1.4761    2.7684 C.ar      1 <0>        -0.0239
     30 C22       -10.2821    2.2520    3.5206 C.ar      1 <0>        -0.1249
     31 C23       -10.6110    1.8737    4.8157 C.ar      1 <0>         0.0853
     32 C24       -10.0787    0.7062    5.3619 C.ar      1 <0>         0.0592
     33 C25        -9.2265   -0.0808    4.6130 C.ar      1 <0>        -0.1156
     34 O9        -10.4037    0.3397    6.6306 O.3       1 <0>        -0.4888
     35 O10       -11.4532    2.6432    5.5527 O.3       1 <0>        -0.4882
     36 O11         2.8763   -0.5711   -2.5884 O.3       1 <0>        -0.4869
     37 O12         3.6973    0.2018   -0.0783 O.3       1 <0>        -0.4874
     38 H1         -0.5221   -0.4384    1.3747 H         1 <0>         0.1215
     39 H2          1.8226    0.1942    1.7449 H         1 <0>         0.1323
     40 H3          0.3454   -1.1966   -2.7634 H         1 <0>         0.1342
     41 H4         -1.8848   -2.1416   -1.4794 H         1 <0>         0.1490
     42 H5         -3.6482   -0.8310   -0.4062 H         1 <0>         0.1510
     43 H6         -2.2169    3.3490    0.1790 H         1 <0>         0.0914
     44 H7         -3.9504    4.8791    1.0747 H         1 <0>         0.1153
     45 H8         -4.6113    3.8539   -0.2216 H         1 <0>         0.0758
     46 H9         -4.4605    4.3557    3.4639 H         1 <0>         0.0869
     47 H10        -5.4847    2.9577    3.8697 H         1 <0>         0.0915
     48 H11        -3.7512    1.4276    2.9740 H         1 <0>         0.0625
     49 H12        -1.5359    2.3446    2.3414 H         1 <0>         0.0520
     50 H13        -1.7128    4.3956    3.5529 H         1 <0>         0.3822
     51 H14        -2.1774    1.9102    4.7049 H         1 <0>         0.3666
     52 H15        -6.4409   -0.5048    1.0649 H         1 <0>         0.1377
     53 H16        -8.1252   -1.5959    2.4588 H         1 <0>         0.1393
     54 H17        -9.1740    1.7729    1.7616 H         1 <0>         0.1378
     55 H18       -10.6967    3.1573    3.1023 H         1 <0>         0.1317
     56 H19        -8.8171   -0.9875    5.0334 H         1 <0>         0.1265
     57 H20       -11.1865   -0.2249    6.6886 H         1 <0>         0.3761
     58 H21       -12.3862    2.4077    5.4572 H         1 <0>         0.3790
     59 H22         3.3281   -1.4199   -2.6903 H         1 <0>         0.3834
     60 H23         4.2663   -0.5368    0.1783 H         1 <0>         0.3846
@<TRIPOS>BOND
     1    1    6 ar
     2    1    2 ar
     3    1   38 1
     4    2    3 ar
     5    2   39 1
     6    3    4 ar
     7    3   37 1
     8    4    5 ar
     9    4   36 1
    10    5    6 ar
    11    5   40 1
    12    6    7 1
    13    7    8 2
    14    7   41 1
    15    8    9 1
    16    8   42 1
    17    9   10 2
    18    9   11 1
    19   11   12 1
    20   12   17 1
    21   12   13 1
    22   12   43 1
    23   13   14 1
    24   13   44 1
    25   13   45 1
    26   14   15 1
    27   14   20 1
    28   14   23 1
    29   15   16 1
    30   15   46 1
    31   15   47 1
    32   16   17 1
    33   16   19 1
    34   16   48 1
    35   17   18 1
    36   17   49 1
    37   18   50 1
    38   19   51 1
    39   20   21 2
    40   20   22 1
    41   23   24 1
    42   24   25 2
    43   24   26 1
    44   26   27 2
    45   26   52 1
    46   27   28 1
    47   27   53 1
    48   28   33 ar
    49   28   29 ar
    50   29   30 ar
    51   29   54 1
    52   30   31 ar
    53   30   55 1
    54   31   32 ar
    55   31   35 1
    56   32   33 ar
    57   32   34 1
    58   33   56 1
    59   34   57 1
    60   35   58 1
    61   36   59 1
    62   37   60 1
@<TRIPOS>MOLECULE
CHEMBL431948__15
   60    62     0     0     0
SMALL
USER_CHARGES

@<TRIPOS>ATOM
      1 C1          0.7573   -0.7075   -1.4741 C.ar      1 <0>        -0.0912
      2 C2          1.7793   -0.0416   -2.1147 C.ar      1 <0>        -0.1304
      3 C3          1.4920    0.9375   -3.0560 C.ar      1 <0>         0.0810
      4 C4          0.1672    1.2530   -3.3582 C.ar      1 <0>         0.0844
      5 C5         -0.8630    0.5909   -2.7213 C.ar      1 <0>        -0.0944
      6 C6         -0.5743   -0.3971   -1.7721 C.ar      1 <0>        -0.0428
      7 C7         -1.6665   -1.1061   -1.0907 C.2       1 <0>        -0.0242
      8 C8         -2.6016   -0.4098   -0.4082 C.2       1 <0>        -0.1739
      9 C9         -2.3666    0.9459   -0.0662 C.2       1 <0>         0.4803
     10 O1         -1.2740    1.4427   -0.2646 O.2       1 <0>        -0.4814
     11 O2         -3.3548    1.6852    0.4794 O.3       1 <0>        -0.3138
     12 C10        -3.0479    3.0437    0.7991 C.3       1 <0>         0.1086
     13 C11        -4.3138    3.8945    0.6788 C.3       1 <0>        -0.0899
     14 C12        -5.3750    3.3697    1.6480 C.3       1 <0>         0.0661
     15 C13        -4.8416    3.4487    3.0798 C.3       1 <0>        -0.1250
     16 C14        -3.5757    2.5979    3.2001 C.3       1 <0>         0.0833
     17 C15        -2.5145    3.1227    2.2309 C.3       1 <0>         0.0578
     18 O3         -1.3321    2.3281    2.3433 O.3       1 <0>        -0.5503
     19 O4         -3.0775    2.6717    4.5375 O.3       1 <0>        -0.5604
     20 C16        -6.6219    4.2077    1.5295 C.2       1 <0>         0.5006
     21 O5         -7.6757    3.6895    1.2016 O.co2     1 <0>        -0.6676
     22 O6         -6.5769    5.4038    1.7615 O.co2     1 <0>        -0.6866
     23 O7         -5.6819    2.0111    1.3283 O.3       1 <0>        -0.3198
     24 C17        -6.6066    1.3955    2.0941 C.2       1 <0>         0.4857
     25 O8         -7.1374    1.9971    3.0086 O.2       1 <0>        -0.4739
     26 C18        -6.9597    0.0474    1.8331 C.2       1 <0>        -0.1727
     27 C19        -7.9784   -0.5272    2.5093 C.2       1 <0>        -0.0279
     28 C20        -8.8898    0.3027    3.3094 C.ar      1 <0>        -0.0661
     29 C21        -9.4282    1.4761    2.7684 C.ar      1 <0>        -0.0179
     30 C22       -10.2821    2.2520    3.5206 C.ar      1 <0>        -0.1284
     31 C23       -10.6110    1.8737    4.8157 C.ar      1 <0>         0.0865
     32 C24       -10.0787    0.7062    5.3619 C.ar      1 <0>         0.0565
     33 C25        -9.2265   -0.0808    4.6130 C.ar      1 <0>        -0.1149
     34 O9        -10.4037    0.3397    6.6306 O.3       1 <0>        -0.4888
     35 O10       -11.4532    2.6432    5.5527 O.3       1 <0>        -0.4886
     36 O11        -0.1094    2.2136   -4.2804 O.3       1 <0>        -0.4856
     37 O12         2.5037    1.5905   -3.6842 O.3       1 <0>        -0.4879
     38 H1          0.9838   -1.4719   -0.7455 H         1 <0>         0.1291
     39 H2          2.8066   -0.2818   -1.8838 H         1 <0>         0.1314
     40 H3         -1.8891    0.8344   -2.9545 H         1 <0>         0.1280
     41 H4         -1.7216   -2.1837   -1.1357 H         1 <0>         0.1474
     42 H5         -3.5281   -0.8858   -0.1230 H         1 <0>         0.1463
     43 H6         -2.2919    3.4176    0.1086 H         1 <0>         0.0893
     44 H7         -4.0797    4.9307    0.9226 H         1 <0>         0.1084
     45 H8         -4.6938    3.8382   -0.3413 H         1 <0>         0.0849
     46 H9         -4.6075    4.4849    3.3237 H         1 <0>         0.0816
     47 H10        -5.5976    3.0748    3.7703 H         1 <0>         0.0971
     48 H11        -3.8098    1.5616    2.9563 H         1 <0>         0.0652
     49 H12        -2.2804    4.1589    2.4748 H         1 <0>         0.0750
     50 H13        -0.9385    2.3314    3.2265 H         1 <0>         0.3685
     51 H14        -2.2740    2.1548    4.6869 H         1 <0>         0.3653
     52 H15        -6.4142   -0.5202    1.0937 H         1 <0>         0.1378
     53 H16        -8.1230   -1.5964    2.4618 H         1 <0>         0.1395
     54 H17        -9.1740    1.7729    1.7616 H         1 <0>         0.1399
     55 H18       -10.6967    3.1573    3.1023 H         1 <0>         0.1314
     56 H19        -8.8171   -0.9875    5.0334 H         1 <0>         0.1265
     57 H20       -11.1865   -0.2249    6.6886 H         1 <0>         0.3759
     58 H21       -12.3862    2.4077    5.4572 H         1 <0>         0.3791
     59 H22        -0.1897    1.8795   -5.1843 H         1 <0>         0.3831
     60 H23         2.7965    1.1673   -4.5029 H         1 <0>         0.3830
@<TRIPOS>BOND
     1    1    6 ar
     2    1    2 ar
     3    1   38 1
     4    2    3 ar
     5    2   39 1
     6    3    4 ar
     7    3   37 1
     8    4    5 ar
     9    4   36 1
    10    5    6 ar
    11    5   40 1
    12    6    7 1
    13    7    8 2
    14    7   41 1
    15    8    9 1
    16    8   42 1
    17    9   10 2
    18    9   11 1
    19   11   12 1
    20   12   17 1
    21   12   13 1
    22   12   43 1
    23   13   14 1
    24   13   44 1
    25   13   45 1
    26   14   15 1
    27   14   20 1
    28   14   23 1
    29   15   16 1
    30   15   46 1
    31   15   47 1
    32   16   17 1
    33   16   19 1
    34   16   48 1
    35   17   18 1
    36   17   49 1
    37   18   50 1
    38   19   51 1
    39   20   21 2
    40   20   22 1
    41   23   24 1
    42   24   25 2
    43   24   26 1
    44   26   27 2
    45   26   52 1
    46   27   28 1
    47   27   53 1
    48   28   33 ar
    49   28   29 ar
    50   29   30 ar
    51   29   54 1
    52   30   31 ar
    53   30   55 1
    54   31   32 ar
    55   31   35 1
    56   32   33 ar
    57   32   34 1
    58   33   56 1
    59   34   57 1
    60   35   58 1
    61   36   59 1
    62   37   60 1
@<TRIPOS>MOLECULE
CHEMBL380034
   43    46     0     0     0
SMALL
USER_CHARGES

@<TRIPOS>ATOM
      1 C1         -0.0173    1.4248    0.0099 C.3       1 <0>         0.0271
      2 O1          0.0021   -0.0041    0.0020 O.3       1 <0>        -0.3235
      3 C2          0.6267   -0.6192    1.0429 C.ar      1 <0>         0.0678
      4 C3          1.9695   -0.9080    0.9662 C.ar      1 <0>        -0.0876
      5 C4          2.6229   -1.5422    2.0317 C.ar      1 <0>        -0.1875
      6 C5          1.8968   -1.8830    3.1824 C.ar      1 <0>         0.1529
      7 C6          0.5422   -1.5889    3.2544 C.ar      1 <0>         0.1214
      8 C7         -0.0937   -0.9524    2.1914 C.ar      1 <0>         0.1801
      9 N1         -1.4571   -0.6490    2.2757 N.pl3     1 <0>        -0.7348
     10 C8         -2.2716   -1.3166    3.3014 C.3       1 <0>         0.1036
     11 C9         -1.4970   -1.2832    4.6269 C.3       1 <0>         0.1077
     12 N2         -0.1918   -1.9298    4.4051 N.pl3     1 <0>        -0.7461
     13 O2          2.5168   -2.4991    4.2223 O.3       1 <0>        -0.4789
     14 C10         4.0353   -1.7184    1.6670 C.2       1 <0>         0.5710
     15 O3          4.8756   -2.2378    2.3767 O.2       1 <0>        -0.5185
     16 N3          4.2679   -1.2249    0.4389 N.am      1 <0>        -0.6144
     17 C11         3.0145   -0.6833   -0.0985 C.3       1 <0>         0.1546
     18 C12         5.5608   -1.2265   -0.2500 C.3       1 <0>         0.1793
     19 C13         5.7003   -2.4939   -1.0534 C.ar      1 <0>        -0.1273
     20 C14         6.2606   -3.6188   -0.4772 C.ar      1 <0>        -0.0642
     21 C15         6.3886   -4.7817   -1.2128 C.ar      1 <0>        -0.1554
     22 C16         5.9555   -4.8199   -2.5274 C.ar      1 <0>         0.1048
     23 C17         5.3945   -3.6927   -3.1034 C.ar      1 <0>        -0.1574
     24 C18         5.2627   -2.5324   -2.3642 C.ar      1 <0>        -0.0742
     25 F1          6.0805   -5.9560   -3.2476 F         1 <0>        -0.1387
     26 H1          1.0053    1.8021    0.0021 H         1 <0>         0.0483
     27 H2         -0.5445    1.7859   -0.8732 H         1 <0>         0.0967
     28 H3         -0.5275    1.7763    0.9067 H         1 <0>         0.0432
     29 H4         -1.8583   -0.0089    1.6672 H         1 <0>         0.4072
     30 H5         -3.2201   -0.7921    3.4166 H         1 <0>         0.0925
     31 H6         -2.4558   -2.3505    3.0092 H         1 <0>         0.0679
     32 H7         -1.3549   -0.2500    4.9440 H         1 <0>         0.0637
     33 H8         -2.0503   -1.8302    5.3903 H         1 <0>         0.0923
     34 H9          0.1597   -2.5694    5.0440 H         1 <0>         0.4103
     35 H10         2.8864   -1.8903    4.8764 H         1 <0>         0.3907
     36 H11         2.7389   -1.2111   -1.0115 H         1 <0>         0.0957
     37 H12         3.1221    0.3827   -0.2990 H         1 <0>         0.0924
     38 H13         5.6186   -0.3658   -0.9163 H         1 <0>         0.0948
     39 H14         6.3641   -1.1719    0.4847 H         1 <0>         0.0981
     40 H15         6.5987   -3.5886    0.5480 H         1 <0>         0.1376
     41 H16         6.8266   -5.6602   -0.7626 H         1 <0>         0.1369
     42 H17         5.0566   -3.7212   -4.1288 H         1 <0>         0.1368
     43 H18         4.8211   -1.6544   -2.8119 H         1 <0>         0.1329
@<TRIPOS>BOND
     1    1    2 1
     2    1   26 1
     3    1   27 1
     4    1   28 1
     5    2    3 1
     6    3    8 ar
     7    3    4 ar
     8    4   17 1
     9    4    5 ar
    10    5    6 ar
    11    5   14 1
    12    6    7 ar
    13    6   13 1
    14    7   12 1
    15    7    8 ar
    16    8    9 1
    17    9   10 1
    18    9   29 1
    19   10   11 1
    20   10   30 1
    21   10   31 1
    22   11   12 1
    23   11   32 1
    24   11   33 1
    25   12   34 1
    26   13   35 1
    27   14   15 2
    28   14   16 am
    29   16   17 1
    30   16   18 1
    31   17   36 1
    32   17   37 1
    33   18   19 1
    34   18   38 1
    35   18   39 1
    36   19   24 ar
    37   19   20 ar
    38   20   21 ar
    39   20   40 1
    40   21   22 ar
    41   21   41 1
    42   22   23 ar
    43   22   25 1
    44   23   24 ar
    45   23   42 1
    46   24   43 1
@<TRIPOS>MOLECULE
CHEMBL164
   33    35     0     0     0
SMALL
USER_CHARGES

@<TRIPOS>ATOM
      1 C1          2.0732    1.4062   -0.8308 C.ar      1 <0>        -0.0859
      2 C2          1.1849    2.0922    0.0020 C.ar      1 <0>        -0.0258
      3 C3          0.3126    1.3779    0.8279 C.ar      1 <0>        -0.1033
      4 C4          0.3308   -0.0046    0.8189 C.ar      1 <0>         0.0938
      5 C5          1.2167   -0.6850   -0.0116 C.ar      1 <0>         0.0764
      6 C6          2.0867    0.0236   -0.8354 C.ar      1 <0>         0.0966
      7 O1          2.9505   -0.6446   -1.6458 O.3       1 <0>        -0.4863
      8 O2          1.2322   -2.0446   -0.0183 O.3       1 <0>        -0.4787
      9 O3         -0.5174   -0.7003    1.6227 O.3       1 <0>        -0.4812
     10 C7          1.1683    3.5667    0.0096 C.2       1 <0>         0.1312
     11 C8          2.3519    4.2356    0.1004 C.2       1 <0>        -0.0374
     12 C9          2.3527    5.6546    0.1089 C.2       1 <0>         0.4012
     13 O4          3.3933    6.2877    0.1887 O.2       1 <0>        -0.4464
     14 C10         1.0501    6.3331    0.0174 C.ar      1 <0>        -0.2690
     15 C11         0.9572    7.7312    0.0184 C.ar      1 <0>         0.2250
     16 C12        -0.2849    8.3310   -0.0697 C.ar      1 <0>        -0.2079
     17 C13        -1.4331    7.5508   -0.1581 C.ar      1 <0>         0.2004
     18 C14        -1.3490    6.1675   -0.1597 C.ar      1 <0>        -0.1855
     19 C15        -0.1119    5.5470   -0.0726 C.ar      1 <0>         0.1879
     20 O5         -0.0133    4.2011   -0.0789 O.3       1 <0>        -0.1974
     21 O6         -2.6481    8.1504   -0.2432 O.3       1 <0>        -0.4866
     22 O7          2.0786    8.4907    0.1056 O.3       1 <0>        -0.4725
     23 O8          3.5237    3.5485    0.1828 O.3       1 <0>        -0.4491
     24 H1          2.7453    1.9555   -1.4734 H         1 <0>         0.1463
     25 H2         -0.3747    1.9053    1.4728 H         1 <0>         0.1442
     26 H3          3.8063   -0.8341   -1.2374 H         1 <0>         0.3987
     27 H4          0.6310   -2.4417   -0.6632 H         1 <0>         0.3936
     28 H5         -1.3687   -0.9054    1.2124 H         1 <0>         0.3924
     29 H6         -0.3642    9.4081   -0.0694 H         1 <0>         0.1517
     30 H7         -2.2476    5.5724   -0.2288 H         1 <0>         0.1557
     31 H8         -2.9359    8.3293   -1.1489 H         1 <0>         0.4053
     32 H9          2.4687    8.7158   -0.7501 H         1 <0>         0.4040
     33 H10         4.3069    4.1124    0.2436 H         1 <0>         0.4089
@<TRIPOS>BOND
     1    1    6 ar
     2    1    2 ar
     3    1   24 1
     4    2    3 ar
     5    2   10 1
     6    3    4 ar
     7    3   25 1
     8    4    5 ar
     9    4    9 1
    10    5    6 ar
    11    5    8 1
    12    6    7 1
    13    7   26 1
    14    8   27 1
    15    9   28 1
    16   10   20 1
    17   10   11 2
    18   11   12 1
    19   11   23 1
    20   12   13 2
    21   12   14 1
    22   14   19 ar
    23   14   15 ar
    24   15   16 ar
    25   15   22 1
    26   16   17 ar
    27   16   29 1
    28   17   18 ar
    29   17   21 1
    30   18   19 ar
    31   18   30 1
    32   19   20 1
    33   21   31 1
    34   22   32 1
    35   23   33 1
@<TRIPOS>MOLECULE
CHEMBL210233
   45    47     0     0     0
SMALL
USER_CHARGES

@<TRIPOS>ATOM
      1 C1          1.1362    0.3759   -0.5575 C.3       1 <0>         0.0829
      2 N1         -0.1644    0.0276    0.0200 N.am      1 <0>        -0.5401
      3 C2         -0.2278   -0.7375    1.1774 C.ar      1 <0>         0.3945
      4 C3         -0.1892   -2.1493    1.0921 C.ar      1 <0>        -0.1115
      5 C4         -0.0871   -2.8147   -0.1387 C.ar      1 <0>        -0.0465
      6 C5         -0.0557   -4.1827   -0.1305 C.ar      1 <0>        -0.1563
      7 C6         -0.1245   -4.8725    1.0768 C.ar      1 <0>         0.1469
      8 N2         -0.2200   -4.2439    2.2253 N.ar      1 <0>        -0.4501
      9 C7         -0.2550   -2.9134    2.2820 C.ar      1 <0>         0.1306
     10 C8         -0.3575   -2.2215    3.5126 C.ar      1 <0>         0.1777
     11 C9         -0.3887   -0.8327    3.4946 C.ar      1 <0>         0.0510
     12 N3         -0.3179   -0.1475    2.3482 N.ar      1 <0>        -0.4382
     13 C10        -0.4954   -0.0969    4.7694 C.2       1 <0>         0.5767
     14 O1         -0.5549   -0.7063    5.8199 O.2       1 <0>        -0.5118
     15 N4         -0.5268    1.2505    4.7692 N.am      1 <0>        -0.7102
     16 C11        -0.6327    1.9809    6.0347 C.3       1 <0>         0.1623
     17 C12        -0.6480    3.4625    5.7598 C.ar      1 <0>        -0.1219
     18 C13         0.5397    4.1684    5.7120 C.ar      1 <0>        -0.0689
     19 C14         0.5269    5.5270    5.4595 C.ar      1 <0>        -0.1554
     20 C15        -0.6760    6.1813    5.2544 C.ar      1 <0>         0.1082
     21 C16        -1.8649    5.4732    5.3025 C.ar      1 <0>        -0.1553
     22 C17        -1.8493    4.1137    5.5499 C.ar      1 <0>        -0.0688
     23 F1         -0.6897    7.5095    5.0079 F         1 <0>        -0.1370
     24 O2         -0.4244   -2.8999    4.6843 O.3       1 <0>        -0.4482
     25 C18        -1.2993    0.4496   -0.5718 C.2       1 <0>         0.5201
     26 O3         -1.2483    1.0373   -1.6325 O.2       1 <0>        -0.4929
     27 C19        -2.6197    0.1942    0.0776 C.2       1 <0>         0.5092
     28 O4         -2.6797   -0.4766    1.0872 O.2       1 <0>        -0.5011
     29 N5         -3.7446    0.7086   -0.4575 N.am      1 <0>        -0.8178
     30 H1          1.4763   -0.4347   -1.2020 H         1 <0>         0.0718
     31 H2          1.0405    1.2901   -1.1434 H         1 <0>         0.0962
     32 H3          1.8593    0.5314    0.2431 H         1 <0>         0.0822
     33 H4         -0.0351   -2.2633   -1.0658 H         1 <0>         0.1439
     34 H5          0.0220   -4.7269   -1.0601 H         1 <0>         0.1496
     35 H6         -0.0991   -5.9522    1.0684 H         1 <0>         0.1722
     36 H7         -0.4793    1.7366    3.9311 H         1 <0>         0.4108
     37 H8         -1.5541    1.6960    6.5426 H         1 <0>         0.0821
     38 H9          0.2210    1.7375    6.6672 H         1 <0>         0.0825
     39 H10         1.4778    3.6579    5.8723 H         1 <0>         0.1358
     40 H11         1.4549    6.0784    5.4225 H         1 <0>         0.1387
     41 H12        -2.8038    5.9826    5.1430 H         1 <0>         0.1384
     42 H13        -2.7762    3.5604    5.5831 H         1 <0>         0.1356
     43 H14         0.4372   -3.0765    5.0863 H         1 <0>         0.4020
     44 H15        -3.6966    1.2447   -1.2645 H         1 <0>         0.4148
     45 H16        -4.6022    0.5427   -0.0357 H         1 <0>         0.4152
@<TRIPOS>BOND
     1    1    2 1
     2    1   30 1
     3    1   31 1
     4    1   32 1
     5    2    3 1
     6    2   25 am
     7    3   12 ar
     8    3    4 ar
     9    4    9 ar
    10    4    5 ar
    11    5    6 ar
    12    5   33 1
    13    6    7 ar
    14    6   34 1
    15    7    8 ar
    16    7   35 1
    17    8    9 ar
    18    9   10 ar
    19   10   11 ar
    20   10   24 1
    21   11   12 ar
    22   11   13 1
    23   13   14 2
    24   13   15 am
    25   15   16 1
    26   15   36 1
    27   16   17 1
    28   16   37 1
    29   16   38 1
    30   17   22 ar
    31   17   18 ar
    32   18   19 ar
    33   18   39 1
    34   19   20 ar
    35   19   40 1
    36   20   21 ar
    37   20   23 1
    38   21   22 ar
    39   21   41 1
    40   22   42 1
    41   24   43 1
    42   25   26 2
    43   25   27 1
    44   27   28 2
    45   27   29 am
    46   29   44 1
    47   29   45 1
@<TRIPOS>MOLECULE
CHEMBL206604
   49    51     0     0     0
SMALL
USER_CHARGES

@<TRIPOS>ATOM
      1 C1         -1.4283   -0.0205   -0.1097 C.3       1 <0>        -0.1410
      2 C2          0.0719    0.2781   -0.1395 C.3       1 <0>        -0.1086
      3 C3          0.6778   -0.0158    1.2343 C.3       1 <0>        -0.1488
      4 C4          0.7464   -0.6024   -1.1933 C.3       1 <0>         0.1258
      5 H1          0.5415   -1.6507   -0.9760 H         1 <0>         0.1132
      6 C5          0.1977   -0.2519   -2.5779 C.3       1 <0>         0.0619
      7 O1          0.3739    1.1454   -2.8203 O.3       1 <0>        -0.5553
      8 N1          2.1930   -0.3723   -1.1687 N.pl3     1 <0>        -0.4886
      9 C6          2.6437    0.8818   -1.2881 C.2       1 <0>         0.1754
     10 C7          3.9923    1.1840   -1.2741 C.2       1 <0>        -0.3132
     11 C8          4.9646    0.0882   -1.1227 C.2       1 <0>         0.4134
     12 O2          6.1640    0.3014   -1.1038 O.2       1 <0>        -0.4537
     13 C9          4.4244   -1.2783   -0.9944 C.ar      1 <0>        -0.1918
     14 C10         3.0306   -1.4567   -1.0180 C.ar      1 <0>         0.2038
     15 C11         2.5083   -2.7412   -0.8932 C.ar      1 <0>        -0.1909
     16 C12         3.3557   -3.8175   -0.7435 C.ar      1 <0>        -0.0537
     17 C13         4.7310   -3.6382   -0.7152 C.ar      1 <0>        -0.1445
     18 C14         5.2702   -2.3772   -0.8475 C.ar      1 <0>        -0.0169
     19 C15         5.6397   -4.8291   -0.5506 C.3       1 <0>        -0.0314
     20 C16         5.9921   -5.3834   -1.9069 C.ar      1 <0>        -0.0962
     21 C17         5.2578   -6.4265   -2.4396 C.ar      1 <0>        -0.0841
     22 C18         5.5803   -6.9355   -3.6835 C.ar      1 <0>        -0.1186
     23 C19         6.6377   -6.4024   -4.3971 C.ar      1 <0>        -0.0902
     24 C20         7.3739   -5.3589   -3.8667 C.ar      1 <0>        -0.0728
     25 C21         7.0474   -4.8444   -2.6220 C.ar      1 <0>         0.1170
     26 F1          7.7618   -3.8209   -2.1048 F         1 <0>        -0.1173
     27 Cl1         8.7021   -4.6897   -4.7622 Cl        1 <0>        -0.0488
     28 C22         4.4473    2.5719   -1.4081 C.2       1 <0>         0.5390
     29 O3          3.6301    3.4745   -1.5338 O.co2     1 <0>        -0.7043
     30 O4          5.6443    2.8276   -1.3943 O.co2     1 <0>        -0.6702
     31 H2         -1.8786    0.2861   -1.0538 H         1 <0>         0.0582
     32 H3         -1.5832   -1.0895    0.0365 H         1 <0>         0.0527
     33 H4         -1.8920    0.5292    0.7094 H         1 <0>         0.0612
     34 H5          0.2286    1.3276   -0.3887 H         1 <0>         0.0954
     35 H6          0.5211   -1.0653    1.4835 H         1 <0>         0.0519
     36 H7          1.7466    0.1969    1.2131 H         1 <0>         0.0597
     37 H8          0.1973    0.6115    1.9851 H         1 <0>         0.0593
     38 H9          0.7336   -0.8226   -3.3363 H         1 <0>         0.0504
     39 H10        -0.8635   -0.4971   -2.6209 H         1 <0>         0.0624
     40 H11         0.0478    1.4392   -3.6819 H         1 <0>         0.3817
     41 H12         1.9299    1.6846   -1.3994 H         1 <0>         0.1776
     42 H13         1.4394   -2.8940   -0.9134 H         1 <0>         0.1288
     43 H14         2.9445   -4.8115   -0.6469 H         1 <0>         0.1239
     44 H15         6.3411   -2.2393   -0.8254 H         1 <0>         0.1359
     45 H16         6.5501   -4.5230   -0.0354 H         1 <0>         0.0871
     46 H17         5.1315   -5.5958    0.0343 H         1 <0>         0.0895
     47 H18         4.4318   -6.8442   -1.8833 H         1 <0>         0.1378
     48 H19         5.0060   -7.7507   -4.0983 H         1 <0>         0.1375
     49 H20         6.8890   -6.8012   -5.3688 H         1 <0>         0.1406
@<TRIPOS>BOND
     1    1    2 1
     2    1   31 1
     3    1   32 1
     4    1   33 1
     5    2    3 1
     6    2    4 1
     7    2   34 1
     8    3   35 1
     9    3   36 1
    10    3   37 1
    11    4    5 1
    12    4    6 1
    13    4    8 1
    14    6    7 1
    15    6   38 1
    16    6   39 1
    17    7   40 1
    18    8   14 1
    19    8    9 1
    20    9   10 2
    21    9   41 1
    22   10   11 1
    23   10   28 1
    24   11   12 2
    25   11   13 1
    26   13   18 ar
    27   13   14 ar
    28   14   15 ar
    29   15   16 ar
    30   15   42 1
    31   16   17 ar
    32   16   43 1
    33   17   18 ar
    34   17   19 1
    35   18   44 1
    36   19   20 1
    37   19   45 1
    38   19   46 1
    39   20   25 ar
    40   20   21 ar
    41   21   22 ar
    42   21   47 1
    43   22   23 ar
    44   22   48 1
    45   23   24 ar
    46   23   49 1
    47   24   25 ar
    48   24   27 1
    49   25   26 1
    50   28   29 2
    51   28   30 1
@<TRIPOS>MOLECULE
CHEMBL206604__1
   50    52     0     0     0
SMALL
USER_CHARGES

@<TRIPOS>ATOM
      1 C1         -0.0360    1.5256    0.0005 C.3       1 <0>        -0.1502
      2 C2         -0.0153   -0.0042   -0.0079 C.3       1 <0>        -0.1108
      3 C3         -1.4507   -0.5337   -0.0171 C.3       1 <0>        -0.1562
      4 C4          0.7182   -0.4975   -1.2568 C.3       1 <0>         0.0856
      5 H1          0.2034   -0.1362   -2.1470 H         1 <0>         0.1371
      6 C5          2.1536    0.0320   -1.2476 C.3       1 <0>         0.0524
      7 O1          2.8029   -0.3306   -2.4679 O.3       1 <0>        -0.5706
      8 N1          0.7381   -1.9623   -1.2648 N.ar      1 <0>        -0.3581
      9 C6          1.4071   -2.5926   -0.3347 C.ar      1 <0>         0.2309
     10 C7          1.4628   -3.9968   -0.2905 C.ar      1 <0>        -0.2090
     11 C8          0.7850   -4.7411   -1.2662 C.ar      1 <0>         0.2998
     12 O2          0.8135   -6.0926   -1.2585 O.3       1 <0>        -0.4416
     13 C9          0.0707   -4.0315   -2.2577 C.ar      1 <0>        -0.1151
     14 C10         0.0655   -2.6163   -2.2222 C.ar      1 <0>         0.1560
     15 C11        -0.6489   -1.9130   -3.2056 C.ar      1 <0>        -0.1425
     16 C12        -1.3260   -2.5964   -4.1700 C.ar      1 <0>        -0.0356
     17 C13        -1.3234   -3.9883   -4.1995 C.ar      1 <0>        -0.0803
     18 C14        -0.6327   -4.7042   -3.2678 C.ar      1 <0>        -0.0452
     19 C15        -2.0836   -4.7117   -5.2811 C.3       1 <0>        -0.0429
     20 C16        -1.1809   -4.9331   -6.4673 C.ar      1 <0>        -0.1105
     21 C17        -1.1852   -4.0333   -7.5168 C.ar      1 <0>        -0.0820
     22 C18        -0.3576   -4.2355   -8.6053 C.ar      1 <0>        -0.1134
     23 C19         0.4757   -5.3379   -8.6463 C.ar      1 <0>        -0.0815
     24 C20         0.4821   -6.2396   -7.5980 C.ar      1 <0>        -0.0720
     25 C21        -0.3433   -6.0343   -6.5037 C.ar      1 <0>         0.1154
     26 F1         -0.3341   -6.9110   -5.4759 F         1 <0>        -0.1212
     27 Cl1         1.5279   -7.6243   -7.6495 Cl        1 <0>        -0.0402
     28 C22         2.2237   -4.6769    0.7667 C.2       1 <0>         0.5279
     29 O3          2.8133   -4.0208    1.6149 O.co2     1 <0>        -0.6641
     30 O4          2.2679   -5.8994    0.7989 O.co2     1 <0>        -0.6361
     31 H2          0.9866    1.9028    0.0070 H         1 <0>         0.0674
     32 H3         -0.5509    1.8869   -0.8898 H         1 <0>         0.0655
     33 H4         -0.5586    1.8770    0.8902 H         1 <0>         0.0769
     34 H5          0.4996   -0.3655    0.8823 H         1 <0>         0.0952
     35 H6         -1.9656   -0.1724   -0.9073 H         1 <0>         0.0654
     36 H7         -1.4359   -1.6236   -0.0231 H         1 <0>         0.0521
     37 H8         -1.9733   -0.1823    0.8726 H         1 <0>         0.0782
     38 H9          2.1398    1.1177   -1.1521 H         1 <0>         0.0915
     39 H10         2.6949   -0.4000   -0.4059 H         1 <0>         0.0695
     40 H11         3.7188   -0.0269   -2.5315 H         1 <0>         0.3979
     41 H12         1.9297   -2.0206    0.4177 H         1 <0>         0.2063
     42 H13        -0.6617   -0.8331   -3.1971 H         1 <0>         0.1515
     43 H14        -1.8739   -2.0499   -4.9234 H         1 <0>         0.1485
     44 H15        -0.6367   -5.7837   -3.3000 H         1 <0>         0.1573
     45 H16        -2.4278   -5.6738   -4.9019 H         1 <0>         0.0981
     46 H17        -2.9421   -4.1126   -5.5846 H         1 <0>         0.1023
     47 H18        -1.8358   -3.1718   -7.4863 H         1 <0>         0.1404
     48 H19        -0.3623   -3.5319   -9.4246 H         1 <0>         0.1425
     49 H20         1.1216   -5.4951   -9.4975 H         1 <0>         0.1456
     50 H21         0.1007   -6.4981   -0.7460 H         1 <0>         0.4217
@<TRIPOS>BOND
     1    1    2 1
     2    1   31 1
     3    1   32 1
     4    1   33 1
     5    2    3 1
     6    2    4 1
     7    2   34 1
     8    3   35 1
     9    3   36 1
    10    3   37 1
    11    4    5 1
    12    4    6 1
    13    4    8 1
    14    6    7 1
    15    6   38 1
    16    6   39 1
    17    7   40 1
    18    8   14 ar
    19    8    9 ar
    20    9   10 ar
    21    9   41 1
    22   10   11 ar
    23   10   28 1
    24   11   12 1
    25   11   13 ar
    26   12   50 1
    27   13   18 ar
    28   13   14 ar
    29   14   15 ar
    30   15   16 ar
    31   15   42 1
    32   16   17 ar
    33   16   43 1
    34   17   18 ar
    35   17   19 1
    36   18   44 1
    37   19   20 1
    38   19   45 1
    39   19   46 1
    40   20   25 ar
    41   20   21 ar
    42   21   22 ar
    43   21   47 1
    44   22   23 ar
    45   22   48 1
    46   23   24 ar
    47   23   49 1
    48   24   25 ar
    49   24   27 1
    50   25   26 1
    51   28   29 2
    52   28   30 1
@<TRIPOS>MOLECULE
CHEMBL378373
   35    36     0     0     0
SMALL
USER_CHARGES

@<TRIPOS>ATOM
      1 C1          0.1699    1.1661   -0.0079 C.ar      1 <0>        -0.0489
      2 C2          1.4335    1.6619   -0.0299 C.ar      1 <0>        -0.1505
      3 C3          2.5355    0.7903   -0.0982 C.ar      1 <0>         0.2058
      4 C4          2.3137   -0.6091   -0.1437 C.ar      1 <0>        -0.2128
      5 C5          1.0081   -1.1088   -0.1201 C.ar      1 <0>         0.0225
      6 C6         -0.0620   -0.2216   -0.0528 C.ar      1 <0>        -0.1624
      7 C7         -1.4402   -0.7357   -0.0278 C.2       1 <0>         0.2802
      8 C8         -2.5053    0.1440    0.0396 C.2       1 <0>        -0.4017
      9 C9         -3.8165   -0.3367   -0.0495 C.2       1 <0>         0.3323
     10 O1         -4.0246   -1.5363   -0.0782 O.2       1 <0>        -0.5144
     11 C10        -4.9588    0.6198   -0.1092 C.2       1 <0>         0.4764
     12 O2         -6.1029    0.2004   -0.1869 O.co2     1 <0>        -0.6710
     13 O3         -4.7502    1.8225   -0.0804 O.co2     1 <0>        -0.6705
     14 O4         -1.6652   -2.0660   -0.0707 O.3       1 <0>        -0.4838
     15 C11         3.4266   -1.4805   -0.2124 C.ar      1 <0>         0.3501
     16 C12         4.7070   -0.9056   -0.2319 C.ar      1 <0>        -0.4096
     17 C13         4.8318    0.4949   -0.1831 C.ar      1 <0>         0.2196
     18 N1          3.7839    1.2752   -0.1196 N.ar      1 <0>        -0.5925
     19 C14         5.8998   -1.7543   -0.3017 C.2       1 <0>         0.3915
     20 C15         7.2702   -1.1277   -0.3222 C.3       1 <0>        -0.2079
     21 C16         8.3163   -2.2100   -0.3961 C.2       1 <0>         0.2873
     22 O5          7.9834   -3.3704   -0.4287 O.2       1 <0>        -0.4193
     23 C17         9.7648   -1.8474   -0.4289 C.2       1 <0>         0.4706
     24 O6         10.6120   -2.7239   -0.4887 O.co2     1 <0>        -0.6684
     25 O7         10.1013   -0.6748   -0.3959 O.co2     1 <0>        -0.6747
     26 O8          5.7839   -2.9613   -0.3431 O.2       1 <0>        -0.4305
     27 O9          3.2622   -2.8209   -0.2571 O.3       1 <0>        -0.6219
     28 H1         -0.6681    1.8450    0.0492 H         1 <0>         0.1298
     29 H2          1.5932    2.7295    0.0048 H         1 <0>         0.1256
     30 H3          0.8316   -2.1737   -0.1549 H         1 <0>         0.1339
     31 H4         -2.3251    1.2019    0.1609 H         1 <0>         0.1442
     32 H5         -2.5998   -2.3048   -0.1378 H         1 <0>         0.4069
     33 H6          5.8172    0.9367   -0.1978 H         1 <0>         0.1412
     34 H7          7.3591   -0.4766   -1.1918 H         1 <0>         0.1116
     35 H8          7.4160   -0.5429    0.5860 H         1 <0>         0.1115
@<TRIPOS>BOND
     1    1    6 ar
     2    1    2 ar
     3    1   28 1
     4    2    3 ar
     5    2   29 1
     6    3   18 ar
     7    3    4 ar
     8    4    5 ar
     9    4   15 ar
    10    5    6 ar
    11    5   30 1
    12    6    7 1
    13    7    8 2
    14    7   14 1
    15    8    9 1
    16    8   31 1
    17    9   10 2
    18    9   11 1
    19   11   12 2
    20   11   13 1
    21   14   32 1
    22   15   16 ar
    23   15   27 1
    24   16   17 ar
    25   16   19 1
    26   17   18 ar
    27   17   33 1
    28   19   20 1
    29   19   26 2
    30   20   21 1
    31   20   34 1
    32   20   35 1
    33   21   22 2
    34   21   23 1
    35   23   24 2
    36   23   25 1
@<TRIPOS>MOLECULE
CHEMBL86133
   52    54     0     0     0
SMALL
USER_CHARGES

@<TRIPOS>ATOM
      1 C1          0.0436    1.1545   -0.1963 C.ar      1 <0>        -0.1296
      2 C2          1.1823    1.9293   -0.0745 C.ar      1 <0>        -0.0762
      3 C3          2.4303    1.3416   -0.1541 C.ar      1 <0>        -0.0949
      4 C4          2.5403   -0.0240   -0.3561 C.ar      1 <0>         0.1047
      5 C5          1.3995   -0.7987   -0.4779 C.ar      1 <0>        -0.1552
      6 C6          0.1522   -0.2086   -0.3979 C.ar      1 <0>        -0.0969
      7 F1          3.7600   -0.5997   -0.4346 F         1 <0>        -0.1353
      8 C7          3.6712    2.1864   -0.0218 C.3       1 <0>         0.0330
      9 C8          3.6039    2.9809    1.2570 C.ar      1 <0>        -0.0828
     10 C9          2.9983    2.4399    2.3717 C.ar      1 <0>        -0.0556
     11 C10         2.9374    3.1786    3.5575 C.ar      1 <0>        -0.1657
     12 C11         3.4922    4.4618    3.6028 C.ar      1 <0>        -0.0784
     13 C12         4.0942    4.9886    2.4800 C.ar      1 <0>        -0.1312
     14 C13         4.1551    4.2490    1.3114 C.ar      1 <0>        -0.0740
     15 C14         2.2925    2.6090    4.7514 C.2       1 <0>         0.3856
     16 C15         2.2291    3.4084    6.0273 C.3       1 <0>        -0.2107
     17 C16         1.5235    2.6048    7.0891 C.2       1 <0>         0.2899
     18 O1          1.1144    1.4970    6.8358 O.2       1 <0>        -0.4217
     19 C17         1.3302    3.1782    8.4545 C.2       1 <0>         0.4706
     20 O2          0.7589    2.5273    9.3144 O.co2     1 <0>        -0.6580
     21 O3          1.7437    4.2976    8.7104 O.co2     1 <0>        -0.6696
     22 O4          1.8123    1.4964    4.7085 O.2       1 <0>        -0.4222
     23 C18         3.7648    3.1286   -1.1942 C.ar      1 <0>        -0.0973
     24 C19         4.7665    2.9669   -2.1286 C.ar      1 <0>        -0.0804
     25 C20         4.8518    3.8411   -3.2145 C.ar      1 <0>        -0.0997
     26 C21         3.9204    4.8740   -3.3462 C.ar      1 <0>        -0.0823
     27 C22         2.9242    5.0240   -2.4046 C.ar      1 <0>        -0.1354
     28 C23         2.8423    4.1505   -1.3339 C.ar      1 <0>        -0.1174
     29 C24         5.9228    3.6744   -4.2195 C.2       1 <0>         0.3858
     30 C25         6.0093    4.5955   -5.3600 C.2       1 <0>        -0.5011
     31 C26         6.9894    4.4430   -6.2797 C.2       1 <0>         0.2397
     32 O5          7.8903    3.4415   -6.1489 O.3       1 <0>        -0.6605
     33 C27         7.0766    5.3717   -7.4297 C.2       1 <0>         0.4897
     34 O6          6.2630    6.2762   -7.5479 O.co2     1 <0>        -0.7129
     35 O7          7.9622    5.2339   -8.2608 O.co2     1 <0>        -0.7038
     36 O8          6.7324    2.7744   -4.1019 O.2       1 <0>        -0.5180
     37 H1         -0.9315    1.6141   -0.1294 H         1 <0>         0.1262
     38 H2          1.0962    2.9944    0.0827 H         1 <0>         0.1330
     39 H3          1.4841   -1.8638   -0.6358 H         1 <0>         0.1318
     40 H4         -0.7380   -0.8129   -0.4925 H         1 <0>         0.1274
     41 H5          4.5496    1.5413   -0.0030 H         1 <0>         0.1022
     42 H6          2.5719    1.4486    2.3288 H         1 <0>         0.1289
     43 H7          3.4487    5.0385    4.5149 H         1 <0>         0.1328
     44 H8          4.5230    5.9792    2.5134 H         1 <0>         0.1279
     45 H9          4.6317    4.6655    0.4363 H         1 <0>         0.1340
     46 H10         3.2403    3.6420    6.3604 H         1 <0>         0.1245
     47 H11         5.4835    2.1665   -2.0205 H         1 <0>         0.1242
     48 H12         3.9808    5.5538   -4.1833 H         1 <0>         0.1357
     49 H13         2.2035    5.8221   -2.5052 H         1 <0>         0.1155
     50 H14         2.0571    4.2696   -0.6019 H         1 <0>         0.1120
     51 H15         5.2904    5.3947   -5.4644 H         1 <0>         0.0873
     52 H16         1.6822    4.3343    5.8491 H         1 <0>         0.1245
@<TRIPOS>BOND
     1    1    6 ar
     2    1    2 ar
     3    1   37 1
     4    2    3 ar
     5    2   38 1
     6    3    4 ar
     7    3    8 1
     8    4    5 ar
     9    4    7 1
    10    5    6 ar
    11    5   39 1
    12    6   40 1
    13    8    9 1
    14    8   23 1
    15    8   41 1
    16    9   14 ar
    17    9   10 ar
    18   10   11 ar
    19   10   42 1
    20   11   12 ar
    21   11   15 1
    22   12   13 ar
    23   12   43 1
    24   13   14 ar
    25   13   44 1
    26   14   45 1
    27   15   16 1
    28   15   22 2
    29   16   17 1
    30   16   46 1
    31   16   52 1
    32   17   18 2
    33   17   19 1
    34   19   20 2
    35   19   21 1
    36   23   28 ar
    37   23   24 ar
    38   24   25 ar
    39   24   47 1
    40   25   26 ar
    41   25   29 1
    42   26   27 ar
    43   26   48 1
    44   27   28 ar
    45   27   49 1
    46   28   50 1
    47   29   30 1
    48   29   36 2
    49   30   31 2
    50   30   51 1
    51   31   32 1
    52   31   33 1
    53   33   34 2
    54   33   35 1
@<TRIPOS>MOLECULE
CHEMBL385825
   64    68     0     0     0
SMALL
USER_CHARGES

@<TRIPOS>ATOM
      1 C1          0.2692    1.8841    0.2527 C.3       1 <0>         0.0295
      2 O1          0.1480    0.4635    0.1563 O.3       1 <0>        -0.3221
      3 C2          0.5770   -0.2659    1.2197 C.ar      1 <0>         0.1520
      4 C3          1.9181   -0.7019    1.2821 C.ar      1 <0>        -0.0862
      5 C4          2.8302   -0.3941    0.2570 C.ar      1 <0>        -0.0516
      6 C5          4.1142   -0.8457    0.3781 C.ar      1 <0>        -0.1539
      7 C6          4.4860   -1.5893    1.4962 C.ar      1 <0>         0.1399
      8 N1          3.6320   -1.8739    2.4489 N.ar      1 <0>        -0.4516
      9 C7          2.3620   -1.4616    2.3908 C.ar      1 <0>         0.1102
     10 C8          1.4523   -1.7739    3.4230 C.ar      1 <0>         0.2285
     11 C9          0.1354   -1.3317    3.3359 C.ar      1 <0>        -0.1689
     12 C10        -0.2831   -0.5711    2.2257 C.ar      1 <0>        -0.0911
     13 C11        -1.7418   -0.2569    2.4556 C.3       1 <0>         0.2225
     14 N2         -2.0967   -0.8720    3.7390 N.am      1 <0>        -0.6102
     15 C12        -1.0174   -1.4976    4.2375 C.2       1 <0>         0.5740
     16 O2         -0.9917   -2.1020    5.2924 O.2       1 <0>        -0.4859
     17 C13        -3.4186   -0.8242    4.3686 C.3       1 <0>         0.1696
     18 C14        -3.3816    0.1188    5.5436 C.ar      1 <0>        -0.1365
     19 C15        -3.1333   -0.3690    6.8131 C.ar      1 <0>        -0.0552
     20 C16        -3.0986    0.4949    7.8912 C.ar      1 <0>        -0.1553
     21 C17        -3.3127    1.8493    7.6996 C.ar      1 <0>         0.1129
     22 C18        -3.5613    2.3367    6.4277 C.ar      1 <0>        -0.1579
     23 C19        -3.5902    1.4717    5.3503 C.ar      1 <0>        -0.0723
     24 F1         -3.2795    2.6947    8.7529 F         1 <0>        -0.1348
     25 S1         -2.7495   -0.9664    1.1245 S.3       1 <0>        -0.2097
     26 C20        -3.9471   -2.0165    1.9927 C.3       1 <0>        -0.0963
     27 C21        -4.7431   -2.8331    0.9727 C.3       1 <0>        -0.1262
     28 C22        -5.6900   -3.7553    1.6964 C.2       1 <0>         0.5287
     29 O3         -5.6371   -3.8527    2.9042 O.2       1 <0>        -0.5022
     30 N3         -6.5957   -4.4718    1.0016 N.am      1 <0>        -0.6361
     31 C23        -6.6740   -4.3742   -0.4641 C.3       1 <0>         0.0811
     32 C24        -6.6590   -5.7913   -1.0467 C.3       1 <0>        -0.0230
     33 N4         -7.7331   -6.5829   -0.4338 N.4       1 <0>        -0.5053
     34 C25        -7.4781   -6.7439    1.0033 C.3       1 <0>        -0.0206
     35 C26        -7.5300   -5.3782    1.6869 C.3       1 <0>         0.0853
     36 O4          1.8583   -2.5010    4.4931 O.3       1 <0>        -0.4640
     37 H1          1.3175    2.1510    0.3872 H         1 <0>         0.0519
     38 H2         -0.1084    2.3438   -0.6606 H         1 <0>         0.1046
     39 H3         -0.3088    2.2411    1.1051 H         1 <0>         0.0489
     40 H4          2.5242    0.1833   -0.6028 H         1 <0>         0.1503
     41 H5          4.8394   -0.6270   -0.3917 H         1 <0>         0.1495
     42 H6          5.5039   -1.9404    1.5799 H         1 <0>         0.1710
     43 H7         -1.8896    0.8219    2.5036 H         1 <0>         0.1258
     44 H8         -4.1536   -0.4733    3.6442 H         1 <0>         0.1033
     45 H9         -3.6940   -1.8215    4.7117 H         1 <0>         0.0999
     46 H10        -2.9667   -1.4255    6.9623 H         1 <0>         0.1383
     47 H11        -2.9050    0.1135    8.8829 H         1 <0>         0.1395
     48 H12        -3.7287    3.3930    6.2771 H         1 <0>         0.1389
     49 H13        -3.7797    1.8522    4.3574 H         1 <0>         0.1306
     50 H14        -3.4178   -2.6917    2.6652 H         1 <0>         0.0996
     51 H15        -4.6287   -1.3906    2.5686 H         1 <0>         0.1007
     52 H16        -5.3113   -2.1591    0.3316 H         1 <0>         0.1090
     53 H17        -4.0571   -3.4217    0.3636 H         1 <0>         0.1116
     54 H18        -7.5980   -3.8709   -0.7489 H         1 <0>         0.1015
     55 H19        -5.8177   -3.8145   -0.8402 H         1 <0>         0.1322
     56 H20        -6.8131   -5.7428   -2.1247 H         1 <0>         0.1496
     57 H21        -5.6974   -6.2601   -0.8377 H         1 <0>         0.1367
     58 H22        -8.6150   -6.1110   -0.5669 H         1 <0>         0.4297
     59 H23        -8.2358   -7.3973    1.4359 H         1 <0>         0.1487
     60 H24        -6.4917   -7.1838    1.1503 H         1 <0>         0.1357
     61 H25        -7.2392   -5.4820    2.7323 H         1 <0>         0.1370
     62 H26        -8.5418   -4.9781    1.6231 H         1 <0>         0.0969
     63 H27         2.1985   -1.9679    5.2247 H         1 <0>         0.4049
     64 H28        -7.7713   -7.4914   -0.8712 H         1 <0>         0.4364
@<TRIPOS>BOND
     1    1    2 1
     2    1   37 1
     3    1   38 1
     4    1   39 1
     5    2    3 1
     6    3   12 ar
     7    3    4 ar
     8    4    9 ar
     9    4    5 ar
    10    5    6 ar
    11    5   40 1
    12    6    7 ar
    13    6   41 1
    14    7    8 ar
    15    7   42 1
    16    8    9 ar
    17    9   10 ar
    18   10   11 ar
    19   10   36 1
    20   11   15 1
    21   11   12 ar
    22   12   13 1
    23   13   14 1
    24   13   25 1
    25   13   43 1
    26   14   15 am
    27   14   17 1
    28   15   16 2
    29   17   18 1
    30   17   44 1
    31   17   45 1
    32   18   23 ar
    33   18   19 ar
    34   19   20 ar
    35   19   46 1
    36   20   21 ar
    37   20   47 1
    38   21   22 ar
    39   21   24 1
    40   22   23 ar
    41   22   48 1
    42   23   49 1
    43   25   26 1
    44   26   27 1
    45   26   50 1
    46   26   51 1
    47   27   28 1
    48   27   52 1
    49   27   53 1
    50   28   29 2
    51   28   30 am
    52   30   35 1
    53   30   31 1
    54   31   32 1
    55   31   54 1
    56   31   55 1
    57   32   33 1
    58   32   56 1
    59   32   57 1
    60   33   34 1
    61   33   58 1
    62   33   64 1
    63   34   35 1
    64   34   59 1
    65   34   60 1
    66   35   61 1
    67   35   62 1
    68   36   63 1
@<TRIPOS>MOLECULE
CHEMBL385825__1
   63    67     0     0     0
SMALL
USER_CHARGES

@<TRIPOS>ATOM
      1 C1          0.8531    1.2494    0.0484 C.3       1 <0>         0.0301
      2 O1          0.4949   -0.1141   -0.1851 O.3       1 <0>        -0.3197
      3 C2          0.9085   -1.0267    0.7331 C.ar      1 <0>         0.1495
      4 C3          2.1609   -1.6606    0.5841 C.ar      1 <0>        -0.0851
      5 C4          2.9994   -1.3651   -0.5054 C.ar      1 <0>        -0.0506
      6 C5          4.1992   -2.0133   -0.5913 C.ar      1 <0>        -0.1570
      7 C6          4.5602   -2.9381    0.3863 C.ar      1 <0>         0.1366
      8 N1          3.7750   -3.2105    1.3998 N.ar      1 <0>        -0.4515
      9 C7          2.5890   -2.6107    1.5419 C.ar      1 <0>         0.1099
     10 C8          1.7529   -2.9121    2.6376 C.ar      1 <0>         0.2249
     11 C9          0.5227   -2.2724    2.7601 C.ar      1 <0>        -0.1648
     12 C10         0.1196   -1.3250    1.7978 C.ar      1 <0>        -0.0856
     13 C11        -1.2376   -0.8298    2.2364 C.3       1 <0>         0.2181
     14 N2         -1.5520   -1.5417    3.4796 N.am      1 <0>        -0.6075
     15 C12        -0.5419   -2.3777    3.7723 C.2       1 <0>         0.5733
     16 O2         -0.5047   -3.1068    4.7449 O.2       1 <0>        -0.4885
     17 C13        -2.7763   -1.3781    4.2673 C.3       1 <0>         0.1648
     18 C14        -2.4751   -0.5676    5.5015 C.ar      1 <0>        -0.1298
     19 C15        -2.1534   -1.2054    6.6852 C.ar      1 <0>        -0.0560
     20 C16        -1.8765   -0.4632    7.8175 C.ar      1 <0>        -0.1555
     21 C17        -1.9214    0.9197    7.7663 C.ar      1 <0>         0.1082
     22 C18        -2.2437    1.5574    6.5803 C.ar      1 <0>        -0.1583
     23 C19        -2.5150    0.8132    5.4479 C.ar      1 <0>        -0.0726
     24 F1         -1.6513    1.6463    8.8728 F         1 <0>        -0.1376
     25 S1         -2.4791   -1.2095    0.9695 S.3       1 <0>        -0.2134
     26 C20        -3.7321   -2.1743    1.8582 C.3       1 <0>        -0.0864
     27 C21        -4.7488   -2.7321    0.8602 C.3       1 <0>        -0.1256
     28 C22        -5.7040   -3.6514    1.5770 C.2       1 <0>         0.5214
     29 O3         -5.6482   -3.7628    2.7834 O.2       1 <0>        -0.5365
     30 N3         -6.6201   -4.3497    0.8774 N.am      1 <0>        -0.6139
     31 C23        -6.7009   -4.2340   -0.5866 C.3       1 <0>         0.1076
     32 C24        -8.1533   -3.9334   -0.9718 C.3       1 <0>         0.0415
     33 N4         -9.0339   -4.9491   -0.3795 N.3       1 <0>        -0.6900
     34 C25        -8.9840   -4.9072    1.0881 C.3       1 <0>         0.0428
     35 C26        -7.5617   -5.2524    1.5570 C.3       1 <0>         0.1143
     36 O4          2.1451   -3.8197    3.5656 O.3       1 <0>        -0.4630
     37 H1          1.9388    1.3392    0.0820 H         1 <0>         0.0499
     38 H2          0.4618    1.8709   -0.7571 H         1 <0>         0.1036
     39 H3          0.4317    1.5782    0.9984 H         1 <0>         0.0485
     40 H4          2.7030   -0.6454   -1.2542 H         1 <0>         0.1496
     41 H5          4.8664   -1.8095   -1.4158 H         1 <0>         0.1475
     42 H6          5.5112   -3.4436    0.3068 H         1 <0>         0.1690
     43 H7         -1.2036    0.2444    2.4181 H         1 <0>         0.1241
     44 H8         -3.5274   -0.8628    3.6686 H         1 <0>         0.1074
     45 H9         -3.1541   -2.3580    4.5593 H         1 <0>         0.1037
     46 H10        -2.1188   -2.2841    6.7250 H         1 <0>         0.1394
     47 H11        -1.6256   -0.9617    8.7422 H         1 <0>         0.1382
     48 H12        -2.2793    2.6360    6.5392 H         1 <0>         0.1374
     49 H13        -2.7621    1.3104    4.5215 H         1 <0>         0.1314
     50 H14        -3.2503   -2.9981    2.3848 H         1 <0>         0.0960
     51 H15        -4.2424   -1.5329    2.5767 H         1 <0>         0.1000
     52 H16        -5.3049   -1.9098    0.4100 H         1 <0>         0.1051
     53 H17        -4.2263   -3.2870    0.0810 H         1 <0>         0.1045
     54 H18        -6.0567   -3.4228   -0.9259 H         1 <0>         0.0900
     55 H19        -6.3868   -5.1713   -1.0459 H         1 <0>         0.0808
     56 H20        -8.4321   -2.9480   -0.5985 H         1 <0>         0.0372
     57 H21        -8.2534   -3.9533   -2.0570 H         1 <0>         0.0907
     58 H22        -9.9807   -4.8452   -0.7122 H         1 <0>         0.3495
     59 H23        -9.2513   -3.9082    1.4327 H         1 <0>         0.0370
     60 H24        -9.6867   -5.6334    1.4968 H         1 <0>         0.0895
     61 H25        -7.3287   -6.2856    1.2998 H         1 <0>         0.0767
     62 H26        -7.4869   -5.1148    2.6357 H         1 <0>         0.0968
     63 H27         2.6408   -3.4388    4.3033 H         1 <0>         0.4024
@<TRIPOS>BOND
     1    1    2 1
     2    1   37 1
     3    1   38 1
     4    1   39 1
     5    2    3 1
     6    3   12 ar
     7    3    4 ar
     8    4    9 ar
     9    4    5 ar
    10    5    6 ar
    11    5   40 1
    12    6    7 ar
    13    6   41 1
    14    7    8 ar
    15    7   42 1
    16    8    9 ar
    17    9   10 ar
    18   10   11 ar
    19   10   36 1
    20   11   15 1
    21   11   12 ar
    22   12   13 1
    23   13   14 1
    24   13   25 1
    25   13   43 1
    26   14   15 am
    27   14   17 1
    28   15   16 2
    29   17   18 1
    30   17   44 1
    31   17   45 1
    32   18   23 ar
    33   18   19 ar
    34   19   20 ar
    35   19   46 1
    36   20   21 ar
    37   20   47 1
    38   21   22 ar
    39   21   24 1
    40   22   23 ar
    41   22   48 1
    42   23   49 1
    43   25   26 1
    44   26   27 1
    45   26   50 1
    46   26   51 1
    47   27   28 1
    48   27   52 1
    49   27   53 1
    50   28   29 2
    51   28   30 am
    52   30   35 1
    53   30   31 1
    54   31   32 1
    55   31   54 1
    56   31   55 1
    57   32   33 1
    58   32   56 1
    59   32   57 1
    60   33   34 1
    61   33   58 1
    62   34   35 1
    63   34   59 1
    64   34   60 1
    65   35   61 1
    66   35   62 1
    67   36   63 1
@<TRIPOS>MOLECULE
CHEMBL385825__2
   63    67     0     0     0
SMALL
USER_CHARGES

@<TRIPOS>ATOM
      1 C1          0.0382    1.8844   -0.3613 C.3       1 <0>         0.0261
      2 O1          0.0510    0.4642   -0.2031 O.3       1 <0>        -0.3172
      3 C2          0.7757   -0.2504   -1.1038 C.ar      1 <0>        -0.0169
      4 C3          0.1705   -0.7059   -2.2949 C.ar      1 <0>        -0.0361
      5 C4         -1.1806   -0.4329   -2.5734 C.ar      1 <0>        -0.0949
      6 C5         -1.7061   -0.9020   -3.7443 C.ar      1 <0>        -0.1558
      7 C6         -0.9051   -1.6288   -4.6228 C.ar      1 <0>         0.0623
      8 N1          0.3536   -1.8810   -4.3585 N.ar      1 <0>        -0.4176
      9 C7          0.9276   -1.4501   -3.2310 C.ar      1 <0>         0.0663
     10 C8          2.2837   -1.7276   -2.9581 C.ar      1 <0>         0.3626
     11 C9          2.8554   -1.2667   -1.7756 C.ar      1 <0>        -0.3564
     12 C10         2.0842   -0.5220   -0.8608 C.ar      1 <0>        -0.0053
     13 C11         3.0042   -0.1806    0.2865 C.3       1 <0>         0.2370
     14 N2          4.3082   -0.7643   -0.0456 N.am      1 <0>        -0.6278
     15 C12         4.2162   -1.3966   -1.2274 C.2       1 <0>         0.5843
     16 O2          5.1318   -1.9801   -1.7750 O.2       1 <0>        -0.5183
     17 C13         5.5128   -0.6833    0.7843 C.3       1 <0>         0.1727
     18 C14         6.4879    0.2823    0.1615 C.ar      1 <0>        -0.1227
     19 C15         7.4752   -0.1838   -0.6865 C.ar      1 <0>        -0.0535
     20 C16         8.3697    0.7007   -1.2586 C.ar      1 <0>        -0.1553
     21 C17         8.2767    2.0543   -0.9822 C.ar      1 <0>         0.1020
     22 C18         7.2875    2.5199   -0.1327 C.ar      1 <0>        -0.1598
     23 C19         6.3908    1.6341    0.4341 C.ar      1 <0>        -0.0754
     24 F1          9.1509    2.9199   -1.5405 F         1 <0>        -0.1409
     25 S1          2.3731   -0.9008    1.8272 S.3       1 <0>        -0.2309
     26 C20         3.7496   -1.9145    2.4339 C.3       1 <0>        -0.0952
     27 C21         3.2848   -2.7388    3.6361 C.3       1 <0>        -0.1230
     28 C22         4.4078   -3.6316    4.0976 C.2       1 <0>         0.5271
     29 O3          5.4294   -3.7056    3.4483 O.2       1 <0>        -0.4981
     30 N3          4.2768   -4.3476    5.2319 N.am      1 <0>        -0.6385
     31 C23         3.0444   -4.2782    6.0322 C.3       1 <0>         0.0822
     32 C24         2.5680   -5.7067    6.3154 C.3       1 <0>        -0.0235
     33 N4          3.6553   -6.4690    6.9419 N.4       1 <0>        -0.5044
     34 C25         4.7762   -6.6052    6.0032 C.3       1 <0>        -0.0209
     35 C26         5.3598   -5.2255    5.7015 C.3       1 <0>         0.0856
     36 O4          3.0256   -2.4393   -3.8422 O.3       1 <0>        -0.6089
     37 H1          1.0561    2.2673   -0.2881 H         1 <0>         0.0338
     38 H2         -0.3758    2.1375   -1.3373 H         1 <0>         0.0381
     39 H3         -0.5753    2.3316    0.4208 H         1 <0>         0.0819
     40 H4         -1.7866    0.1318   -1.8805 H         1 <0>         0.1306
     41 H5         -2.7405   -0.7101   -3.9883 H         1 <0>         0.1266
     42 H6         -1.3326   -1.9939   -5.5449 H         1 <0>         0.1482
     43 H7          3.0926    0.9011    0.3867 H         1 <0>         0.1081
     44 H8          5.2440   -0.3356    1.7818 H         1 <0>         0.0923
     45 H9          5.9724   -1.6691    0.8547 H         1 <0>         0.0890
     46 H10         7.5477   -1.2397   -0.9017 H         1 <0>         0.1383
     47 H11         9.1412    0.3363   -1.9208 H         1 <0>         0.1358
     48 H12         7.2142    3.5754    0.0839 H         1 <0>         0.1344
     49 H13         5.6163    1.9976    1.0932 H         1 <0>         0.1287
     50 H14         4.0844   -2.5843    1.6418 H         1 <0>         0.0994
     51 H15         4.5732   -1.2667    2.7342 H         1 <0>         0.0943
     52 H16         2.9967   -2.0691    4.4464 H         1 <0>         0.1050
     53 H17         2.4294   -3.3502    3.3486 H         1 <0>         0.1108
     54 H18         3.2469   -3.7663    6.9729 H         1 <0>         0.0988
     55 H19         2.2768   -3.7395    5.4766 H         1 <0>         0.1340
     56 H20         1.7105   -5.6773    6.9876 H         1 <0>         0.1480
     57 H21         2.2803   -6.1861    5.3797 H         1 <0>         0.1376
     58 H22         3.9690   -5.9862    7.7705 H         1 <0>         0.4280
     59 H23         5.5458   -7.2379    6.4453 H         1 <0>         0.1463
     60 H24         4.4216   -7.0574    5.0769 H         1 <0>         0.1362
     61 H25         6.1222   -5.3128    4.9274 H         1 <0>         0.1364
     62 H26         5.8001   -4.8110    6.6083 H         1 <0>         0.0940
     63 H27         3.3185   -7.3854    7.1968 H         1 <0>         0.4342
@<TRIPOS>BOND
     1    1    2 1
     2    1   37 1
     3    1   38 1
     4    1   39 1
     5    2    3 1
     6    3   12 ar
     7    3    4 ar
     8    4    9 ar
     9    4    5 ar
    10    5    6 ar
    11    5   40 1
    12    6    7 ar
    13    6   41 1
    14    7    8 ar
    15    7   42 1
    16    8    9 ar
    17    9   10 ar
    18   10   11 ar
    19   10   36 1
    20   11   15 1
    21   11   12 ar
    22   12   13 1
    23   13   14 1
    24   13   25 1
    25   13   43 1
    26   14   15 am
    27   14   17 1
    28   15   16 2
    29   17   18 1
    30   17   44 1
    31   17   45 1
    32   18   23 ar
    33   18   19 ar
    34   19   20 ar
    35   19   46 1
    36   20   21 ar
    37   20   47 1
    38   21   22 ar
    39   21   24 1
    40   22   23 ar
    41   22   48 1
    42   23   49 1
    43   25   26 1
    44   26   27 1
    45   26   50 1
    46   26   51 1
    47   27   28 1
    48   27   52 1
    49   27   53 1
    50   28   29 2
    51   28   30 am
    52   30   35 1
    53   30   31 1
    54   31   32 1
    55   31   54 1
    56   31   55 1
    57   32   33 1
    58   32   56 1
    59   32   57 1
    60   33   34 1
    61   33   58 1
    62   33   63 1
    63   34   35 1
    64   34   59 1
    65   34   60 1
    66   35   61 1
    67   35   62 1
@<TRIPOS>MOLECULE
CHEMBL385825__3
   64    68     0     0     0
SMALL
USER_CHARGES

@<TRIPOS>ATOM
      1 C1         -0.0173    1.4248    0.0099 C.3       1 <0>         0.0147
      2 O1          0.0021   -0.0041    0.0020 O.3       1 <0>        -0.3255
      3 C2          0.6258   -0.6184    1.0415 C.ar      1 <0>         0.1541
      4 C3          2.0037   -0.9147    0.9628 C.ar      1 <0>        -0.0880
      5 C4          2.7536   -0.5840   -0.1799 C.ar      1 <0>        -0.0519
      6 C5          4.0834   -0.8978   -0.1927 C.ar      1 <0>        -0.1542
      7 C6          4.6585   -1.5283    0.9087 C.ar      1 <0>         0.1405
      8 N1          3.9553   -1.8349    1.9714 N.ar      1 <0>        -0.4501
      9 C7          2.6506   -1.5547    2.0470 C.ar      1 <0>         0.1121
     10 C8          1.9045   -1.8892    3.1967 C.ar      1 <0>         0.2293
     11 C9          0.5470   -1.5859    3.2476 C.ar      1 <0>        -0.1668
     12 C10        -0.0751   -0.9426    2.1589 C.ar      1 <0>        -0.0902
     13 C11        -1.5225   -0.7603    2.5478 C.3       1 <0>         0.2231
     14 N2         -1.6596   -1.3246    3.8947 N.am      1 <0>        -0.5944
     15 C12        -0.4699   -1.8073    4.2899 C.2       1 <0>         0.5737
     16 O2         -0.2586   -2.3379    5.3635 O.2       1 <0>        -0.4886
     17 C13        -2.8975   -1.3678    4.6770 C.3       1 <0>         0.1786
     18 C14        -3.6332   -2.6497    4.3827 C.ar      1 <0>        -0.1340
     19 C15        -4.5504   -2.6980    3.3495 C.ar      1 <0>        -0.0772
     20 C16        -5.2254   -3.8731    3.0784 C.ar      1 <0>        -0.1564
     21 C17        -4.9826   -5.0023    3.8420 C.ar      1 <0>         0.1110
     22 C18        -4.0637   -4.9526    4.8766 C.ar      1 <0>        -0.1516
     23 C19        -3.3862   -3.7779    5.1425 C.ar      1 <0>        -0.0613
     24 F1         -5.6422   -6.1514    3.5782 F         1 <0>        -0.1349
     25 S1         -1.9461    1.0035    2.5647 S.3       1 <0>        -0.2233
     26 C20        -3.5432    1.0795    1.7079 C.3       1 <0>        -0.0875
     27 C21        -4.0227    2.5313    1.6508 C.3       1 <0>        -0.1246
     28 C22        -5.3495    2.5944    0.9390 C.2       1 <0>         0.5290
     29 O3         -5.8612    1.5783    0.5188 O.2       1 <0>        -0.5025
     30 N3         -5.9675    3.7800    0.7694 N.am      1 <0>        -0.6359
     31 C23        -5.3628    5.0260    1.2652 C.3       1 <0>         0.0807
     32 C24        -5.3595    6.0511    0.1264 C.3       1 <0>        -0.0227
     33 N4         -6.7231    6.2053   -0.3960 N.4       1 <0>        -0.5057
     34 C25        -7.1726    4.9449   -1.0003 C.3       1 <0>        -0.0203
     35 C26        -7.2631    3.8657    0.0777 C.3       1 <0>         0.0850
     36 O4          2.5061   -2.5030    4.2455 O.3       1 <0>        -0.4619
     37 H1          1.0053    1.8021    0.0021 H         1 <0>         0.0461
     38 H2         -0.5445    1.7859   -0.8732 H         1 <0>         0.0921
     39 H3         -0.5275    1.7763    0.9067 H         1 <0>         0.0768
     40 H4          2.2908   -0.0956   -1.0247 H         1 <0>         0.1489
     41 H5          4.6876   -0.6578   -1.0551 H         1 <0>         0.1491
     42 H6          5.7107   -1.7709    0.8860 H         1 <0>         0.1715
     43 H7         -2.1679   -1.2944    1.8504 H         1 <0>         0.1213
     44 H8         -2.6578   -1.3221    5.7393 H         1 <0>         0.1060
     45 H9         -3.5262   -0.5184    4.4095 H         1 <0>         0.0953
     46 H10        -4.7399   -1.8171    2.7542 H         1 <0>         0.1253
     47 H11        -5.9421   -3.9106    2.2714 H         1 <0>         0.1373
     48 H12        -3.8738   -5.8327    5.4731 H         1 <0>         0.1407
     49 H13        -2.6661   -3.7401    5.9465 H         1 <0>         0.1400
     50 H14        -3.4306    0.6939    0.6946 H         1 <0>         0.1000
     51 H15        -4.2738    0.4765    2.2471 H         1 <0>         0.0952
     52 H16        -4.1353    2.9169    2.6641 H         1 <0>         0.1123
     53 H17        -3.2921    3.1343    1.1116 H         1 <0>         0.1091
     54 H18        -5.9474    5.4095    2.1015 H         1 <0>         0.1017
     55 H19        -4.3395    4.8335    1.5877 H         1 <0>         0.1320
     56 H20        -5.0035    7.0105    0.5019 H         1 <0>         0.1496
     57 H21        -4.7015    5.7061   -0.6713 H         1 <0>         0.1367
     58 H22        -7.3446    6.4557    0.3584 H         1 <0>         0.4302
     59 H23        -8.1527    5.0891   -1.4551 H         1 <0>         0.1488
     60 H24        -6.4598    4.6334   -1.7639 H         1 <0>         0.1358
     61 H25        -7.4956    2.9063   -0.3846 H         1 <0>         0.1371
     62 H26        -8.0428    4.1299    0.7920 H         1 <0>         0.0971
     63 H27         2.8701   -1.8934    4.9020 H         1 <0>         0.4048
     64 H28        -6.7342    6.9342   -1.0937 H         1 <0>         0.4367
@<TRIPOS>BOND
     1    1    2 1
     2    1   37 1
     3    1   38 1
     4    1   39 1
     5    2    3 1
     6    3   12 ar
     7    3    4 ar
     8    4    9 ar
     9    4    5 ar
    10    5    6 ar
    11    5   40 1
    12    6    7 ar
    13    6   41 1
    14    7    8 ar
    15    7   42 1
    16    8    9 ar
    17    9   10 ar
    18   10   11 ar
    19   10   36 1
    20   11   15 1
    21   11   12 ar
    22   12   13 1
    23   13   14 1
    24   13   25 1
    25   13   43 1
    26   14   15 am
    27   14   17 1
    28   15   16 2
    29   17   18 1
    30   17   44 1
    31   17   45 1
    32   18   23 ar
    33   18   19 ar
    34   19   20 ar
    35   19   46 1
    36   20   21 ar
    37   20   47 1
    38   21   22 ar
    39   21   24 1
    40   22   23 ar
    41   22   48 1
    42   23   49 1
    43   25   26 1
    44   26   27 1
    45   26   50 1
    46   26   51 1
    47   27   28 1
    48   27   52 1
    49   27   53 1
    50   28   29 2
    51   28   30 am
    52   30   35 1
    53   30   31 1
    54   31   32 1
    55   31   54 1
    56   31   55 1
    57   32   33 1
    58   32   56 1
    59   32   57 1
    60   33   34 1
    61   33   58 1
    62   33   64 1
    63   34   35 1
    64   34   59 1
    65   34   60 1
    66   35   61 1
    67   35   62 1
    68   36   63 1
@<TRIPOS>MOLECULE
CHEMBL385825__4
   63    67     0     0     0
SMALL
USER_CHARGES

@<TRIPOS>ATOM
      1 C1         -0.0173    1.4248    0.0099 C.3       1 <0>         0.0139
      2 O1          0.0021   -0.0041    0.0020 O.3       1 <0>        -0.3256
      3 C2          0.6258   -0.6184    1.0415 C.ar      1 <0>         0.1552
      4 C3          2.0037   -0.9147    0.9628 C.ar      1 <0>        -0.0875
      5 C4          2.7536   -0.5840   -0.1799 C.ar      1 <0>        -0.0493
      6 C5          4.0834   -0.8978   -0.1927 C.ar      1 <0>        -0.1579
      7 C6          4.6585   -1.5283    0.9087 C.ar      1 <0>         0.1376
      8 N1          3.9553   -1.8349    1.9714 N.ar      1 <0>        -0.4519
      9 C7          2.6506   -1.5547    2.0470 C.ar      1 <0>         0.1118
     10 C8          1.9045   -1.8892    3.1967 C.ar      1 <0>         0.2227
     11 C9          0.5470   -1.5859    3.2476 C.ar      1 <0>        -0.1625
     12 C10        -0.0751   -0.9426    2.1589 C.ar      1 <0>        -0.0872
     13 C11        -1.5225   -0.7603    2.5478 C.3       1 <0>         0.2167
     14 N2         -1.6596   -1.3246    3.8947 N.am      1 <0>        -0.5921
     15 C12        -0.4699   -1.8073    4.2899 C.2       1 <0>         0.5739
     16 O2         -0.2586   -2.3379    5.3635 O.2       1 <0>        -0.4948
     17 C13        -2.8975   -1.3678    4.6770 C.3       1 <0>         0.1768
     18 C14        -3.6332   -2.6497    4.3827 C.ar      1 <0>        -0.1312
     19 C15        -4.5504   -2.6980    3.3495 C.ar      1 <0>        -0.0751
     20 C16        -5.2254   -3.8731    3.0784 C.ar      1 <0>        -0.1549
     21 C17        -4.9826   -5.0023    3.8420 C.ar      1 <0>         0.1081
     22 C18        -4.0637   -4.9526    4.8766 C.ar      1 <0>        -0.1539
     23 C19        -3.3862   -3.7779    5.1425 C.ar      1 <0>        -0.0627
     24 F1         -5.6422   -6.1514    3.5782 F         1 <0>        -0.1370
     25 S1         -1.9461    1.0035    2.5647 S.3       1 <0>        -0.2250
     26 C20        -3.5432    1.0795    1.7079 C.3       1 <0>        -0.0783
     27 C21        -4.0227    2.5313    1.6508 C.3       1 <0>        -0.1238
     28 C22        -5.3495    2.5944    0.9390 C.2       1 <0>         0.5213
     29 O3         -5.8612    1.5783    0.5188 O.2       1 <0>        -0.5364
     30 N3         -5.9675    3.7800    0.7694 N.am      1 <0>        -0.6137
     31 C23        -5.3617    5.0250    1.2657 C.3       1 <0>         0.1079
     32 C24        -6.4043    5.7737    2.1027 C.3       1 <0>         0.0406
     33 N4         -7.6281    5.9516    1.3098 N.3       1 <0>        -0.6900
     34 C25        -8.2333    4.6579    0.9666 C.3       1 <0>         0.0422
     35 C26        -7.2628    3.8641    0.0776 C.3       1 <0>         0.1145
     36 O4          2.5061   -2.5030    4.2455 O.3       1 <0>        -0.4630
     37 H1          1.0053    1.8021    0.0021 H         1 <0>         0.0451
     38 H2         -0.5445    1.7859   -0.8732 H         1 <0>         0.0963
     39 H3         -0.5275    1.7763    0.9067 H         1 <0>         0.0795
     40 H4          2.2908   -0.0956   -1.0247 H         1 <0>         0.1496
     41 H5          4.6876   -0.6578   -1.0551 H         1 <0>         0.1476
     42 H6          5.7107   -1.7709    0.8860 H         1 <0>         0.1692
     43 H7         -2.1679   -1.2944    1.8504 H         1 <0>         0.1214
     44 H8         -2.6578   -1.3221    5.7393 H         1 <0>         0.1052
     45 H9         -3.5262   -0.5184    4.4095 H         1 <0>         0.0981
     46 H10        -4.7399   -1.8171    2.7542 H         1 <0>         0.1290
     47 H11        -5.9421   -3.9106    2.2714 H         1 <0>         0.1379
     48 H12        -3.8738   -5.8327    5.4731 H         1 <0>         0.1386
     49 H13        -2.6661   -3.7401    5.9465 H         1 <0>         0.1390
     50 H14        -3.4306    0.6939    0.6946 H         1 <0>         0.0991
     51 H15        -4.2738    0.4765    2.2471 H         1 <0>         0.0925
     52 H16        -4.1353    2.9169    2.6641 H         1 <0>         0.1046
     53 H17        -3.2921    3.1343    1.1116 H         1 <0>         0.1054
     54 H18        -4.4959    4.7894    1.8846 H         1 <0>         0.0897
     55 H19        -5.0552    5.6445    0.4229 H         1 <0>         0.0812
     56 H20        -6.6325    5.1979    2.9996 H         1 <0>         0.0374
     57 H21        -6.0100    6.7494    2.3869 H         1 <0>         0.0909
     58 H22        -8.2883    6.5432    1.7917 H         1 <0>         0.3500
     59 H23        -8.4361    4.0975    1.8793 H         1 <0>         0.0371
     60 H24        -9.1656    4.8242    0.4268 H         1 <0>         0.0898
     61 H25        -7.1355    4.3742   -0.8772 H         1 <0>         0.0772
     62 H26        -7.6545    2.8607   -0.0894 H         1 <0>         0.0967
     63 H27         2.8701   -1.8934    4.9020 H         1 <0>         0.4026
@<TRIPOS>BOND
     1    1    2 1
     2    1   37 1
     3    1   38 1
     4    1   39 1
     5    2    3 1
     6    3   12 ar
     7    3    4 ar
     8    4    9 ar
     9    4    5 ar
    10    5    6 ar
    11    5   40 1
    12    6    7 ar
    13    6   41 1
    14    7    8 ar
    15    7   42 1
    16    8    9 ar
    17    9   10 ar
    18   10   11 ar
    19   10   36 1
    20   11   15 1
    21   11   12 ar
    22   12   13 1
    23   13   14 1
    24   13   25 1
    25   13   43 1
    26   14   15 am
    27   14   17 1
    28   15   16 2
    29   17   18 1
    30   17   44 1
    31   17   45 1
    32   18   23 ar
    33   18   19 ar
    34   19   20 ar
    35   19   46 1
    36   20   21 ar
    37   20   47 1
    38   21   22 ar
    39   21   24 1
    40   22   23 ar
    41   22   48 1
    42   23   49 1
    43   25   26 1
    44   26   27 1
    45   26   50 1
    46   26   51 1
    47   27   28 1
    48   27   52 1
    49   27   53 1
    50   28   29 2
    51   28   30 am
    52   30   35 1
    53   30   31 1
    54   31   32 1
    55   31   54 1
    56   31   55 1
    57   32   33 1
    58   32   56 1
    59   32   57 1
    60   33   34 1
    61   33   58 1
    62   34   35 1
    63   34   59 1
    64   34   60 1
    65   35   61 1
    66   35   62 1
    67   36   63 1
@<TRIPOS>MOLECULE
CHEMBL385825__5
   63    67     0     0     0
SMALL
USER_CHARGES

@<TRIPOS>ATOM
      1 C1         -0.0173    1.4248    0.0099 C.3       1 <0>         0.0114
      2 O1          0.0021   -0.0041    0.0020 O.3       1 <0>        -0.3213
      3 C2          0.6058   -0.6071   -1.0558 C.ar      1 <0>        -0.0143
      4 C3         -0.1434   -0.9264   -2.2086 C.ar      1 <0>        -0.0377
      5 C4         -1.5159   -0.6303   -2.2879 C.ar      1 <0>        -0.0951
      6 C5         -2.1836   -0.9650   -3.4322 C.ar      1 <0>        -0.1564
      7 C6         -1.5016   -1.5822   -4.4787 C.ar      1 <0>         0.0632
      8 N1         -0.2223   -1.8565   -4.3999 N.ar      1 <0>        -0.4165
      9 C7          0.4880   -1.5545   -3.3087 C.ar      1 <0>         0.0687
     10 C8          1.8647   -1.8544   -3.2361 C.ar      1 <0>         0.3614
     11 C9          2.5796   -1.5289   -2.0870 C.ar      1 <0>        -0.3540
     12 C10         1.9317   -0.8979   -1.0062 C.ar      1 <0>        -0.0060
     13 C11         2.9871   -0.6854    0.0522 C.3       1 <0>         0.2392
     14 N2          4.2360   -1.2204   -0.5004 N.am      1 <0>        -0.6123
     15 C12         3.9957   -1.7137   -1.7267 C.2       1 <0>         0.5842
     16 O2          4.8330   -2.2259   -2.4446 O.2       1 <0>        -0.5200
     17 C13         5.5330   -1.2287    0.1807 C.3       1 <0>         0.1797
     18 C14         5.6780   -2.5046    0.9695 C.ar      1 <0>        -0.1192
     19 C15         5.2430   -2.5593    2.2805 C.ar      1 <0>        -0.0801
     20 C16         5.3751   -3.7289    3.0047 C.ar      1 <0>        -0.1581
     21 C17         5.9433   -4.8462    2.4166 C.ar      1 <0>         0.0997
     22 C18         6.3786   -4.7903    1.1034 C.ar      1 <0>        -0.1519
     23 C19         6.2407   -3.6211    0.3796 C.ar      1 <0>        -0.0610
     24 F1          6.0733   -5.9901    3.1237 F         1 <0>        -0.1411
     25 S1          3.1692    1.0847    0.4045 S.3       1 <0>        -0.2400
     26 C20         3.2235    1.1685    2.2157 C.3       1 <0>        -0.0887
     27 C21         3.3773    2.6261    2.6545 C.3       1 <0>        -0.1217
     28 C22         3.4224    2.6957    4.1592 C.2       1 <0>         0.5286
     29 O3          3.3398    1.6794    4.8160 O.2       1 <0>        -0.5019
     30 N3          3.5546    3.8872    4.7751 N.am      1 <0>        -0.6378
     31 C23         3.6505    5.1332    3.9991 C.3       1 <0>         0.0811
     32 C24         2.6370    6.1352    4.5620 C.3       1 <0>        -0.0231
     33 N4          2.8623    6.3001    6.0036 N.4       1 <0>        -0.5050
     34 C25         2.5953    5.0350    6.6995 C.3       1 <0>        -0.0202
     35 C26         3.6010    3.9791    6.2426 C.3       1 <0>         0.0853
     36 O4          2.4876   -2.4564   -4.2794 O.3       1 <0>        -0.6053
     37 H1          1.0053    1.8021    0.0021 H         1 <0>         0.0665
     38 H2         -0.5445    1.7859   -0.8732 H         1 <0>         0.0310
     39 H3         -0.5275    1.7763    0.9067 H         1 <0>         0.0680
     40 H4         -2.0284   -0.1518   -1.4665 H         1 <0>         0.1292
     41 H5         -3.2382   -0.7517   -3.5251 H         1 <0>         0.1263
     42 H6         -2.0409   -1.8416   -5.3777 H         1 <0>         0.1487
     43 H7          2.7192   -1.2232    0.9617 H         1 <0>         0.1042
     44 H8          6.3318   -1.1655   -0.5582 H         1 <0>         0.0967
     45 H9          5.5942   -0.3752    0.8559 H         1 <0>         0.0843
     46 H10         4.8001   -1.6876    2.7392 H         1 <0>         0.1238
     47 H11         5.0355   -3.7714    4.0291 H         1 <0>         0.1328
     48 H12         6.8223   -5.6611    0.6438 H         1 <0>         0.1370
     49 H13         6.5761   -3.5785   -0.6461 H         1 <0>         0.1407
     50 H14         2.2996    0.7610    2.6262 H         1 <0>         0.0947
     51 H15         4.0706    0.5878    2.5810 H         1 <0>         0.0879
     52 H16         4.3012    3.0336    2.2441 H         1 <0>         0.1098
     53 H17         2.5302    3.2068    2.2892 H         1 <0>         0.1081
     54 H18         4.6570    5.5424    4.0860 H         1 <0>         0.0998
     55 H19         3.4231    4.9313    2.9523 H         1 <0>         0.1344
     56 H20         2.7602    7.0962    4.0626 H         1 <0>         0.1485
     57 H21         1.6263    5.7641    4.3922 H         1 <0>         0.1374
     58 H22         3.8198    6.5752    6.1638 H         1 <0>         0.4288
     59 H23         2.6878    5.1853    7.7751 H         1 <0>         0.1464
     60 H24         1.5859    4.6972    6.4650 H         1 <0>         0.1358
     61 H25         3.3410    3.0145    6.6784 H         1 <0>         0.1362
     62 H26         4.6025    4.2697    6.5599 H         1 <0>         0.0945
     63 H27         2.2456    7.0150    6.3595 H         1 <0>         0.4345
@<TRIPOS>BOND
     1    1    2 1
     2    1   37 1
     3    1   38 1
     4    1   39 1
     5    2    3 1
     6    3   12 ar
     7    3    4 ar
     8    4    9 ar
     9    4    5 ar
    10    5    6 ar
    11    5   40 1
    12    6    7 ar
    13    6   41 1
    14    7    8 ar
    15    7   42 1
    16    8    9 ar
    17    9   10 ar
    18   10   11 ar
    19   10   36 1
    20   11   15 1
    21   11   12 ar
    22   12   13 1
    23   13   14 1
    24   13   25 1
    25   13   43 1
    26   14   15 am
    27   14   17 1
    28   15   16 2
    29   17   18 1
    30   17   44 1
    31   17   45 1
    32   18   23 ar
    33   18   19 ar
    34   19   20 ar
    35   19   46 1
    36   20   21 ar
    37   20   47 1
    38   21   22 ar
    39   21   24 1
    40   22   23 ar
    41   22   48 1
    42   23   49 1
    43   25   26 1
    44   26   27 1
    45   26   50 1
    46   26   51 1
    47   27   28 1
    48   27   52 1
    49   27   53 1
    50   28   29 2
    51   28   30 am
    52   30   35 1
    53   30   31 1
    54   31   32 1
    55   31   54 1
    56   31   55 1
    57   32   33 1
    58   32   56 1
    59   32   57 1
    60   33   34 1
    61   33   58 1
    62   33   63 1
    63   34   35 1
    64   34   59 1
    65   34   60 1
    66   35   61 1
    67   35   62 1
@<TRIPOS>MOLECULE
CHEMBL419981
   41    43     0     0     0
SMALL
USER_CHARGES

@<TRIPOS>ATOM
      1 C1          2.5639    1.4375   -0.7801 C.ar      1 <0>        -0.0852
      2 C2          1.5084    2.1024   -0.1451 C.ar      1 <0>        -0.0688
      3 C3          0.5738    1.3726    0.5996 C.ar      1 <0>        -0.1158
      4 C4          0.6984    0.0016    0.7035 C.ar      1 <0>         0.0816
      5 C5          1.7529   -0.6535    0.0678 C.ar      1 <0>         0.0944
      6 C6          2.6803    0.0692   -0.6710 C.ar      1 <0>        -0.1297
      7 O1          1.8730   -2.0024    0.1716 O.3       1 <0>        -0.4864
      8 O2         -0.2072   -0.7104    1.4263 O.3       1 <0>        -0.4850
      9 C7          1.3819    3.5619   -0.2592 C.2       1 <0>        -0.0179
     10 C8          0.1594    4.1282   -0.3589 C.2       1 <0>        -0.2271
     11 C9         -0.0338    5.5974   -0.3117 C.2       1 <0>         0.4362
     12 O3          0.6265    6.3301    0.4054 O.2       1 <0>        -0.4324
     13 C10        -1.0994    6.0985   -1.2126 C.2       1 <0>        -0.2255
     14 C11        -0.9907    7.2752   -1.8673 C.2       1 <0>        -0.0201
     15 C12        -2.1268    7.7923   -2.6427 C.ar      1 <0>        -0.0685
     16 C13        -3.4374    7.5572   -2.2099 C.ar      1 <0>        -0.1193
     17 C14        -4.5006    8.0461   -2.9425 C.ar      1 <0>         0.0813
     18 C15        -4.2682    8.7721   -4.1105 C.ar      1 <0>         0.0949
     19 C16        -2.9688    9.0058   -4.5406 C.ar      1 <0>        -0.1300
     20 C17        -1.9017    8.5264   -3.8131 C.ar      1 <0>        -0.0845
     21 O4         -5.3160    9.2515   -4.8295 O.3       1 <0>        -0.4862
     22 O5         -5.7750    7.8193   -2.5254 O.3       1 <0>        -0.4851
     23 C18        -2.3196    5.2083   -1.3533 C.3       1 <0>         0.0942
     24 O6         -1.8843    3.8650   -1.5815 O.3       1 <0>        -0.3628
     25 C19        -1.0999    3.3005   -0.5324 C.3       1 <0>         0.0985
     26 H1          3.2841    1.9965   -1.3590 H         1 <0>         0.1373
     27 H2         -0.2421    1.8810    1.0918 H         1 <0>         0.1395
     28 H3          3.4950   -0.4428   -1.1614 H         1 <0>         0.1397
     29 H4          1.4099   -2.4930   -0.5212 H         1 <0>         0.3914
     30 H5         -0.9673   -1.0163    0.9127 H         1 <0>         0.3900
     31 H6          2.2662    4.1819   -0.2634 H         1 <0>         0.1386
     32 H7         -0.0688    7.8358   -1.8208 H         1 <0>         0.1387
     33 H8         -3.6162    6.9946   -1.3055 H         1 <0>         0.1414
     34 H9         -2.7941    9.5683   -5.4459 H         1 <0>         0.1398
     35 H10        -0.8921    8.7136   -4.1477 H         1 <0>         0.1375
     36 H11        -5.5990   10.1386   -4.5686 H         1 <0>         0.3914
     37 H12        -6.1230    8.5018   -1.9353 H         1 <0>         0.3902
     38 H13        -2.9104    5.2506   -0.4383 H         1 <0>         0.0698
     39 H14        -2.9227    5.5453   -2.1964 H         1 <0>         0.1205
     40 H15        -0.8314    2.2757   -0.7887 H         1 <0>         0.1154
     41 H16        -1.6739    3.3095    0.3942 H         1 <0>         0.0679
@<TRIPOS>BOND
     1    1    6 ar
     2    1    2 ar
     3    1   26 1
     4    2    3 ar
     5    2    9 1
     6    3    4 ar
     7    3   27 1
     8    4    5 ar
     9    4    8 1
    10    5    6 ar
    11    5    7 1
    12    6   28 1
    13    7   29 1
    14    8   30 1
    15    9   10 2
    16    9   31 1
    17   10   25 1
    18   10   11 1
    19   11   12 2
    20   11   13 1
    21   13   14 2
    22   13   23 1
    23   14   15 1
    24   14   32 1
    25   15   20 ar
    26   15   16 ar
    27   16   17 ar
    28   16   33 1
    29   17   18 ar
    30   17   22 1
    31   18   19 ar
    32   18   21 1
    33   19   20 ar
    34   19   34 1
    35   20   35 1
    36   21   36 1
    37   22   37 1
    38   23   24 1
    39   23   38 1
    40   23   39 1
    41   24   25 1
    42   25   40 1
    43   25   41 1
@<TRIPOS>MOLECULE
CHEMBL129148
   43    45     0     0     0
SMALL
USER_CHARGES

@<TRIPOS>ATOM
      1 C1          2.6074    1.4623   -0.7579 C.ar      1 <0>        -0.0904
      2 C2          1.5478    2.1173   -0.1195 C.ar      1 <0>        -0.0609
      3 C3          0.6253    1.3795    0.6321 C.ar      1 <0>        -0.1118
      4 C4          0.7657    0.0103    0.7395 C.ar      1 <0>         0.0788
      5 C5          1.8243   -0.6350    0.1004 C.ar      1 <0>         0.0901
      6 C6          2.7397    0.0958   -0.6453 C.ar      1 <0>        -0.1311
      7 O1          1.9601   -1.9821    0.2078 O.3       1 <0>        -0.4867
      8 O2         -0.1281   -0.7096    1.4691 O.3       1 <0>        -0.4852
      9 C7          1.4043    3.5750   -0.2375 C.2       1 <0>        -0.0441
     10 C8          0.1763    4.1255   -0.3547 C.2       1 <0>        -0.1795
     11 C9         -0.0275    5.5904   -0.3092 C.2       1 <0>         0.4337
     12 O3          0.5947    6.3142    0.4497 O.2       1 <0>        -0.4360
     13 C10        -1.0411    6.1130   -1.2521 C.2       1 <0>        -0.1795
     14 C11        -0.8648    7.2795   -1.9103 C.2       1 <0>        -0.0441
     15 C12        -1.9536    7.8345   -2.7263 C.ar      1 <0>        -0.0605
     16 C13        -1.6621    8.5358   -3.9026 C.ar      1 <0>        -0.1102
     17 C14        -2.6894    9.0544   -4.6653 C.ar      1 <0>         0.0802
     18 C15        -4.0136    8.8795   -4.2639 C.ar      1 <0>         0.0908
     19 C16        -4.3038    8.1841   -3.0975 C.ar      1 <0>        -0.1327
     20 C17        -3.2854    7.6586   -2.3331 C.ar      1 <0>        -0.0957
     21 O4         -5.0223    9.3911   -5.0159 O.3       1 <0>        -0.4868
     22 O5         -2.4100    9.7365   -5.8081 O.3       1 <0>        -0.4861
     23 C18        -2.2869    5.2713   -1.4415 C.3       1 <0>        -0.0911
     24 C19        -1.8699    3.8248   -1.7202 C.3       1 <0>        -0.1162
     25 C20        -1.0634    3.2754   -0.5459 C.3       1 <0>        -0.0862
     26 H1          3.3184    2.0276   -1.3422 H         1 <0>         0.1354
     27 H2         -0.1938    1.8802    1.1269 H         1 <0>         0.1404
     28 H3          3.5577   -0.4086   -1.1382 H         1 <0>         0.1379
     29 H4          1.4990   -2.4800   -0.4811 H         1 <0>         0.3898
     30 H5         -0.8873   -1.0256    0.9604 H         1 <0>         0.3882
     31 H6          2.2806    4.2062   -0.2305 H         1 <0>         0.1343
     32 H7          0.0763    7.8041   -1.8366 H         1 <0>         0.1332
     33 H8         -0.6363    8.6710   -4.2123 H         1 <0>         0.1380
     34 H9         -5.3308    8.0517   -2.7908 H         1 <0>         0.1383
     35 H10        -3.5143    7.1144   -1.4287 H         1 <0>         0.1405
     36 H11        -5.3541    8.7858   -5.6930 H         1 <0>         0.3899
     37 H12        -2.3686    9.1803   -6.5980 H         1 <0>         0.3889
     38 H13        -2.8936    5.3085   -0.5367 H         1 <0>         0.0813
     39 H14        -2.8617    5.6545   -2.2846 H         1 <0>         0.0922
     40 H15        -2.7603    3.2134   -1.8663 H         1 <0>         0.0775
     41 H16        -1.2586    3.7919   -2.6221 H         1 <0>         0.0695
     42 H17        -0.7716    2.2461   -0.7545 H         1 <0>         0.0864
     43 H18        -1.6717    3.3082    0.3580 H         1 <0>         0.0796
@<TRIPOS>BOND
     1    1    6 ar
     2    1    2 ar
     3    1   26 1
     4    2    3 ar
     5    2    9 1
     6    3    4 ar
     7    3   27 1
     8    4    5 ar
     9    4    8 1
    10    5    6 ar
    11    5    7 1
    12    6   28 1
    13    7   29 1
    14    8   30 1
    15    9   10 2
    16    9   31 1
    17   10   25 1
    18   10   11 1
    19   11   12 2
    20   11   13 1
    21   13   14 2
    22   13   23 1
    23   14   15 1
    24   14   32 1
    25   15   20 ar
    26   15   16 ar
    27   16   17 ar
    28   16   33 1
    29   17   18 ar
    30   17   22 1
    31   18   19 ar
    32   18   21 1
    33   19   20 ar
    34   19   34 1
    35   20   35 1
    36   21   36 1
    37   22   37 1
    38   23   24 1
    39   23   38 1
    40   23   39 1
    41   24   25 1
    42   24   40 1
    43   24   41 1
    44   25   42 1
    45   25   43 1
@<TRIPOS>MOLECULE
CHEMBL198160
   52    55     0     0     0
SMALL
USER_CHARGES

@<TRIPOS>ATOM
      1 C1         -0.0178    1.4608    0.0101 C.3       1 <0>         0.0852
      2 N1          0.0021   -0.0041    0.0020 N.am      1 <0>        -0.6048
      3 C2         -1.2619   -0.7430    0.0040 C.3       1 <0>         0.1974
      4 C3         -1.1174   -2.0055   -0.8489 C.3       1 <0>        -0.1518
      5 C4          0.1674   -2.7058   -0.4840 C.2       1 <0>         0.5229
      6 O1          0.2270   -3.9164   -0.5108 O.2       1 <0>        -0.4903
      7 N2          1.2476   -1.9863   -0.1291 N.am      1 <0>        -0.5730
      8 C5          1.1793   -0.6501   -0.0127 C.2       1 <0>         0.7111
      9 O2          2.2081   -0.0106    0.0861 O.2       1 <0>        -0.5448
     10 C6          2.5173   -2.6703    0.1287 C.3       1 <0>         0.0813
     11 C7         -2.3527    0.1263   -0.5664 C.ar      1 <0>         0.1531
     12 C8         -3.6011    0.1961    0.0797 C.ar      1 <0>        -0.1142
     13 C9         -3.8707   -0.5263    1.2548 C.ar      1 <0>        -0.0532
     14 C10        -5.1105   -0.4000    1.8171 C.ar      1 <0>        -0.1501
     15 C11        -6.0628    0.4264    1.2248 C.ar      1 <0>         0.1498
     16 N3         -5.8057    1.0987    0.1275 N.ar      1 <0>        -0.4504
     17 C12        -4.6169    1.0178   -0.4681 C.ar      1 <0>         0.1198
     18 C13        -4.3239    1.7362   -1.6513 C.ar      1 <0>         0.1865
     19 C14        -3.0594    1.5993   -2.2134 C.ar      1 <0>         0.0268
     20 N4         -2.1316    0.8154   -1.6559 N.ar      1 <0>        -0.4254
     21 C15        -2.7333    2.3395   -3.4478 C.2       1 <0>         0.5740
     22 O3         -3.5665    3.0599   -3.9628 O.2       1 <0>        -0.5107
     23 N5         -1.5119    2.2168   -4.0043 N.am      1 <0>        -0.7097
     24 C16        -1.1882    2.9516   -5.2297 C.3       1 <0>         0.1629
     25 C17         0.2283    2.6429   -5.6412 C.ar      1 <0>        -0.1242
     26 C18         1.2696    3.4199   -5.1689 C.ar      1 <0>        -0.0680
     27 C19         2.5691    3.1374   -5.5452 C.ar      1 <0>        -0.1543
     28 C20         2.8278    2.0758   -6.3955 C.ar      1 <0>         0.1100
     29 C21         1.7840    1.2983   -6.8678 C.ar      1 <0>        -0.1555
     30 C22         0.4859    1.5794   -6.4860 C.ar      1 <0>        -0.0691
     31 F1          4.0976    1.7990   -6.7643 F         1 <0>        -0.1364
     32 O4         -5.2539    2.5385   -2.2235 O.3       1 <0>        -0.4487
     33 H1          1.0048    1.8381    0.0023 H         1 <0>         0.0955
     34 H2         -0.5450    1.8219   -0.8730 H         1 <0>         0.0792
     35 H3         -0.5280    1.8123    0.9069 H         1 <0>         0.0602
     36 H4         -1.5175   -1.0225    1.0261 H         1 <0>         0.1061
     37 H5         -1.9606   -2.6703   -0.6611 H         1 <0>         0.1304
     38 H6         -1.0961   -1.7319   -1.9038 H         1 <0>         0.1235
     39 H7          3.0887   -2.7368   -0.7972 H         1 <0>         0.0723
     40 H8          3.0884   -2.1095    0.8686 H         1 <0>         0.0894
     41 H9          2.3194   -3.6734    0.5064 H         1 <0>         0.0906
     42 H10        -3.1206   -1.1628    1.7004 H         1 <0>         0.1518
     43 H11        -5.3517   -0.9411    2.7201 H         1 <0>         0.1521
     44 H12        -7.0380    0.5159    1.6802 H         1 <0>         0.1731
     45 H13        -0.8473    1.6421   -3.5935 H         1 <0>         0.4108
     46 H14        -1.8711    2.6514   -6.0245 H         1 <0>         0.0824
     47 H15        -1.2890    4.0218   -5.0490 H         1 <0>         0.0828
     48 H16         1.0675    4.2481   -4.5059 H         1 <0>         0.1357
     49 H17         3.3824    3.7448   -5.1764 H         1 <0>         0.1390
     50 H18         1.9846    0.4701   -7.5314 H         1 <0>         0.1385
     51 H19        -0.3280    0.9703   -6.8508 H         1 <0>         0.1352
     52 H20        -5.2352    3.4514   -1.9052 H         1 <0>         0.4052
@<TRIPOS>BOND
     1    1    2 1
     2    1   33 1
     3    1   34 1
     4    1   35 1
     5    2    8 am
     6    2    3 1
     7    3    4 1
     8    3   11 1
     9    3   36 1
    10    4    5 1
    11    4   37 1
    12    4   38 1
    13    5    6 2
    14    5    7 am
    15    7    8 am
    16    7   10 1
    17    8    9 2
    18   10   39 1
    19   10   40 1
    20   10   41 1
    21   11   20 ar
    22   11   12 ar
    23   12   17 ar
    24   12   13 ar
    25   13   14 ar
    26   13   42 1
    27   14   15 ar
    28   14   43 1
    29   15   16 ar
    30   15   44 1
    31   16   17 ar
    32   17   18 ar
    33   18   19 ar
    34   18   32 1
    35   19   20 ar
    36   19   21 1
    37   21   22 2
    38   21   23 am
    39   23   24 1
    40   23   45 1
    41   24   25 1
    42   24   46 1
    43   24   47 1
    44   25   30 ar
    45   25   26 ar
    46   26   27 ar
    47   26   48 1
    48   27   28 ar
    49   27   49 1
    50   28   29 ar
    51   28   31 1
    52   29   30 ar
    53   29   50 1
    54   30   51 1
    55   32   52 1
@<TRIPOS>MOLECULE
CHEMBL198160__1
   52    55     0     0     0
SMALL
USER_CHARGES

@<TRIPOS>ATOM
      1 C1         -0.0178    1.4608    0.0101 C.3       1 <0>         0.0903
      2 N1          0.0021   -0.0041    0.0020 N.am      1 <0>        -0.6101
      3 C2         -1.2619   -0.7430    0.0040 C.3       1 <0>         0.1954
      4 C3         -1.1174   -2.0055   -0.8489 C.3       1 <0>        -0.1522
      5 C4          0.1674   -2.7058   -0.4840 C.2       1 <0>         0.5279
      6 O1          0.2270   -3.9164   -0.5108 O.2       1 <0>        -0.4946
      7 N2          1.2476   -1.9863   -0.1291 N.am      1 <0>        -0.5624
      8 C5          1.1793   -0.6501   -0.0127 C.2       1 <0>         0.7195
      9 O2          2.2081   -0.0106    0.0861 O.2       1 <0>        -0.5474
     10 C6          2.5173   -2.6703    0.1287 C.3       1 <0>         0.0830
     11 C7         -1.6153   -1.1294    1.4171 C.ar      1 <0>         0.1395
     12 C8         -2.9331   -0.9571    1.8804 C.ar      1 <0>        -0.1158
     13 C9         -3.9457   -0.4300    1.0606 C.ar      1 <0>        -0.0530
     14 C10        -5.1987   -0.2967    1.5913 C.ar      1 <0>        -0.1517
     15 C11        -5.4410   -0.6790    2.9088 C.ar      1 <0>         0.1478
     16 N3         -4.4917   -1.1707    3.6699 N.ar      1 <0>        -0.4504
     17 C12        -3.2508   -1.3251    3.2111 C.ar      1 <0>         0.1205
     18 C13        -2.2163   -1.8538    4.0188 C.ar      1 <0>         0.1815
     19 C14        -0.9464   -1.9842    3.4674 C.ar      1 <0>         0.0318
     20 N4         -0.6969   -1.6279    2.2036 N.ar      1 <0>        -0.4325
     21 C15         0.1470   -2.5330    4.2928 C.2       1 <0>         0.5735
     22 O3         -0.0673   -2.8656    5.4425 O.2       1 <0>        -0.5109
     23 N5          1.3831   -2.6654    3.7722 N.am      1 <0>        -0.7099
     24 C16         2.4685   -3.2101    4.5916 C.3       1 <0>         0.1614
     25 C17         3.7376   -3.2531    3.7800 C.ar      1 <0>        -0.1253
     26 C18         4.0418   -4.3756    3.0326 C.ar      1 <0>        -0.0701
     27 C19         5.2051   -4.4160    2.2877 C.ar      1 <0>        -0.1551
     28 C20         6.0661   -3.3316    2.2900 C.ar      1 <0>         0.1107
     29 C21         5.7603   -2.2078    3.0389 C.ar      1 <0>        -0.1524
     30 C22         4.5938   -2.1677    3.7789 C.ar      1 <0>        -0.0669
     31 F1          7.2038   -3.3701    1.5624 F         1 <0>        -0.1361
     32 O4         -2.4572   -2.2238    5.2997 O.3       1 <0>        -0.4489
     33 H1          1.0048    1.8381    0.0023 H         1 <0>         0.0979
     34 H2         -0.5450    1.8219   -0.8730 H         1 <0>         0.0693
     35 H3         -0.5280    1.8123    0.9069 H         1 <0>         0.0632
     36 H4         -2.0508   -0.1143   -0.4086 H         1 <0>         0.1306
     37 H5         -1.9606   -2.6703   -0.6611 H         1 <0>         0.1272
     38 H6         -1.0961   -1.7319   -1.9038 H         1 <0>         0.1271
     39 H7          3.0887   -2.7368   -0.7972 H         1 <0>         0.0716
     40 H8          3.0884   -2.1095    0.8686 H         1 <0>         0.0847
     41 H9          2.3194   -3.6734    0.5064 H         1 <0>         0.0881
     42 H10        -3.7400   -0.1383    0.0412 H         1 <0>         0.1522
     43 H11        -6.0003    0.1051    0.9894 H         1 <0>         0.1518
     44 H12        -6.4357   -0.5675    3.3145 H         1 <0>         0.1723
     45 H13         1.5541   -2.4000    2.8550 H         1 <0>         0.4081
     46 H14         2.6174   -2.5759    5.4655 H         1 <0>         0.0828
     47 H15         2.2093   -4.2184    4.9143 H         1 <0>         0.0831
     48 H16         3.3703   -5.2214    3.0313 H         1 <0>         0.1354
     49 H17         5.4428   -5.2931    1.7042 H         1 <0>         0.1394
     50 H18         6.4313   -1.3615    3.0417 H         1 <0>         0.1390
     51 H19         4.3529   -1.2895    4.3596 H         1 <0>         0.1347
     52 H20        -2.7301   -3.1463    5.3980 H         1 <0>         0.4043
@<TRIPOS>BOND
     1    1    2 1
     2    1   33 1
     3    1   34 1
     4    1   35 1
     5    2    8 am
     6    2    3 1
     7    3    4 1
     8    3   11 1
     9    3   36 1
    10    4    5 1
    11    4   37 1
    12    4   38 1
    13    5    6 2
    14    5    7 am
    15    7    8 am
    16    7   10 1
    17    8    9 2
    18   10   39 1
    19   10   40 1
    20   10   41 1
    21   11   20 ar
    22   11   12 ar
    23   12   17 ar
    24   12   13 ar
    25   13   14 ar
    26   13   42 1
    27   14   15 ar
    28   14   43 1
    29   15   16 ar
    30   15   44 1
    31   16   17 ar
    32   17   18 ar
    33   18   19 ar
    34   18   32 1
    35   19   20 ar
    36   19   21 1
    37   21   22 2
    38   21   23 am
    39   23   24 1
    40   23   45 1
    41   24   25 1
    42   24   46 1
    43   24   47 1
    44   25   30 ar
    45   25   26 ar
    46   26   27 ar
    47   26   48 1
    48   27   28 ar
    49   27   49 1
    50   28   29 ar
    51   28   31 1
    52   29   30 ar
    53   29   50 1
    54   30   51 1
    55   32   52 1
@<TRIPOS>MOLECULE
CHEMBL212921
   39    42     0     0     0
SMALL
USER_CHARGES

@<TRIPOS>ATOM
      1 C1         -0.0173    1.4248    0.0099 C.3       1 <0>         0.0364
      2 O1          0.0021   -0.0041    0.0020 O.3       1 <0>        -0.3223
      3 C2          0.6036   -0.6050   -1.0519 C.ar      1 <0>         0.2122
      4 C3         -0.1443   -0.9271   -2.2111 C.ar      1 <0>        -0.1029
      5 C4         -1.5164   -0.6270   -2.2783 C.ar      1 <0>        -0.0426
      6 C5         -2.1972   -0.9564   -3.4182 C.ar      1 <0>        -0.1567
      7 C6         -1.5264   -1.5722   -4.4704 C.ar      1 <0>         0.1449
      8 N1         -0.2463   -1.8496   -4.4006 N.ar      1 <0>        -0.4535
      9 C7          0.4743   -1.5532   -3.3162 C.ar      1 <0>         0.1321
     10 C8          1.8584   -1.8671   -3.2754 C.ar      1 <0>         0.2352
     11 C9          2.5963   -1.5585   -2.1521 C.ar      1 <0>        -0.1714
     12 C10         1.9513   -0.9024   -1.0060 C.ar      1 <0>        -0.1733
     13 C11         3.0214   -0.7237   -0.0159 C.2       1 <0>         0.5855
     14 O2          2.8929   -0.2162    1.0816 O.2       1 <0>        -0.4534
     15 N2          4.1661   -1.2137   -0.5222 N.am      1 <0>        -0.5685
     16 C12         4.0026   -1.7238   -1.7552 C.2       1 <0>         0.5871
     17 O3          4.8759   -2.2271   -2.4350 O.2       1 <0>        -0.4511
     18 C13         5.4446   -1.2036    0.1931 C.3       1 <0>         0.1528
     19 C14         5.5830   -2.4735    0.9926 C.ar      1 <0>        -0.1368
     20 C15         5.1139   -2.5262    2.2920 C.ar      1 <0>        -0.0645
     21 C16         5.2398   -3.6904    3.0259 C.ar      1 <0>        -0.1573
     22 C17         5.8361   -4.8043    2.4594 C.ar      1 <0>         0.1112
     23 C18         6.3055   -4.7503    1.1579 C.ar      1 <0>        -0.1570
     24 C19         6.1737   -3.5866    0.4241 C.ar      1 <0>        -0.0644
     25 F1          5.9601   -5.9427    3.1761 F         1 <0>        -0.1364
     26 O4          2.4515   -2.4675   -4.3351 O.3       1 <0>        -0.4620
     27 H1          1.0053    1.8021    0.0021 H         1 <0>         0.0557
     28 H2         -0.5445    1.7859   -0.8732 H         1 <0>         0.0520
     29 H3         -0.5275    1.7763    0.9067 H         1 <0>         0.1074
     30 H4         -2.0199   -0.1490   -1.4511 H         1 <0>         0.1534
     31 H5         -3.2519   -0.7396   -3.5010 H         1 <0>         0.1517
     32 H6         -2.0731   -1.8282   -5.3659 H         1 <0>         0.1732
     33 H7          6.2620   -1.1352   -0.5246 H         1 <0>         0.1103
     34 H8          5.4782   -0.3458    0.8649 H         1 <0>         0.1102
     35 H9          4.6492   -1.6572    2.7338 H         1 <0>         0.1388
     36 H10         4.8736   -3.7313    4.0411 H         1 <0>         0.1392
     37 H11         6.7710   -5.6184    0.7151 H         1 <0>         0.1395
     38 H12         6.5358   -3.5457   -0.5926 H         1 <0>         0.1392
     39 H13         2.8133   -1.8499   -4.9853 H         1 <0>         0.4064
@<TRIPOS>BOND
     1    1    2 1
     2    1   27 1
     3    1   28 1
     4    1   29 1
     5    2    3 1
     6    3   12 ar
     7    3    4 ar
     8    4    9 ar
     9    4    5 ar
    10    5    6 ar
    11    5   30 1
    12    6    7 ar
    13    6   31 1
    14    7    8 ar
    15    7   32 1
    16    8    9 ar
    17    9   10 ar
    18   10   11 ar
    19   10   26 1
    20   11   16 1
    21   11   12 ar
    22   12   13 1
    23   13   14 2
    24   13   15 am
    25   15   16 am
    26   15   18 1
    27   16   17 2
    28   18   19 1
    29   18   33 1
    30   18   34 1
    31   19   24 ar
    32   19   20 ar
    33   20   21 ar
    34   20   35 1
    35   21   22 ar
    36   21   36 1
    37   22   23 ar
    38   22   25 1
    39   23   24 ar
    40   23   37 1
    41   24   38 1
    42   26   39 1
@<TRIPOS>MOLECULE
CHEMBL212921__1
   38    41     0     0     0
SMALL
USER_CHARGES

@<TRIPOS>ATOM
      1 C1         -0.0173    1.4248    0.0099 C.3       1 <0>         0.0348
      2 O1          0.0021   -0.0041    0.0020 O.3       1 <0>        -0.3202
      3 C2         -1.1960   -0.6352    0.0101 C.ar      1 <0>         0.0651
      4 C3         -1.8178   -0.9688    1.2384 C.ar      1 <0>        -0.0631
      5 C4         -1.1979   -0.6487    2.4593 C.ar      1 <0>        -0.0799
      6 C5         -1.8363   -0.9902    3.6199 C.ar      1 <0>        -0.1643
      7 C6         -3.0670   -1.6373    3.5672 C.ar      1 <0>         0.0793
      8 N1         -3.6393   -1.9332    2.4247 N.ar      1 <0>        -0.4245
      9 C7         -3.0680   -1.6264    1.2575 C.ar      1 <0>         0.1015
     10 C8         -3.7165   -1.9609    0.0394 C.ar      1 <0>         0.3631
     11 C9         -3.1204   -1.6415   -1.1623 C.ar      1 <0>        -0.3701
     12 C10        -1.8222   -0.9527   -1.1790 C.ar      1 <0>        -0.0954
     13 C11        -1.5042   -0.7708   -2.6014 C.2       1 <0>         0.5853
     14 O2         -0.5024   -0.2396   -3.0406 O.2       1 <0>        -0.4916
     15 N2         -2.5023   -1.2887   -3.3379 N.am      1 <0>        -0.5777
     16 C12        -3.4753   -1.8207   -2.5781 C.2       1 <0>         0.5908
     17 O3         -4.4877   -2.3510   -2.9928 O.2       1 <0>        -0.4938
     18 C13        -2.5221   -1.2841   -4.8028 C.3       1 <0>         0.1522
     19 C14        -1.8672   -2.5398   -5.3179 C.ar      1 <0>        -0.1209
     20 C15        -0.5064   -2.5593   -5.5611 C.ar      1 <0>        -0.0673
     21 C16         0.0953   -3.7104   -6.0330 C.ar      1 <0>        -0.1593
     22 C17        -0.6652   -4.8445   -6.2623 C.ar      1 <0>         0.0996
     23 C18        -2.0279   -4.8238   -6.0183 C.ar      1 <0>        -0.1575
     24 C19        -2.6266   -3.6732   -5.5414 C.ar      1 <0>        -0.0635
     25 F1         -0.0780   -5.9702   -6.7240 F         1 <0>        -0.1427
     26 O4         -4.9153   -2.5916    0.0577 O.3       1 <0>        -0.6125
     27 H1          1.0053    1.8021    0.0021 H         1 <0>         0.0863
     28 H2         -0.5445    1.7859   -0.8732 H         1 <0>         0.0426
     29 H3         -0.5275    1.7763    0.9067 H         1 <0>         0.0386
     30 H4         -0.2420   -0.1465    2.4801 H         1 <0>         0.1349
     31 H5         -1.3864   -0.7587    4.5740 H         1 <0>         0.1302
     32 H6         -3.5628   -1.9026    4.4893 H         1 <0>         0.1518
     33 H7         -3.5538   -1.2429   -5.1521 H         1 <0>         0.1014
     34 H8         -1.9788   -0.4138   -5.1708 H         1 <0>         0.0985
     35 H9          0.0865   -1.6744   -5.3825 H         1 <0>         0.1376
     36 H10         1.1584   -3.7252   -6.2233 H         1 <0>         0.1347
     37 H11        -2.6222   -5.7078   -6.1971 H         1 <0>         0.1357
     38 H12        -3.6889   -3.6582   -5.3468 H         1 <0>         0.1402
@<TRIPOS>BOND
     1    1    2 1
     2    1   27 1
     3    1   28 1
     4    1   29 1
     5    2    3 1
     6    3   12 ar
     7    3    4 ar
     8    4    9 ar
     9    4    5 ar
    10    5    6 ar
    11    5   30 1
    12    6    7 ar
    13    6   31 1
    14    7    8 ar
    15    7   32 1
    16    8    9 ar
    17    9   10 ar
    18   10   11 ar
    19   10   26 1
    20   11   16 1
    21   11   12 ar
    22   12   13 1
    23   13   14 2
    24   13   15 am
    25   15   16 am
    26   15   18 1
    27   16   17 2
    28   18   19 1
    29   18   33 1
    30   18   34 1
    31   19   24 ar
    32   19   20 ar
    33   20   21 ar
    34   20   35 1
    35   21   22 ar
    36   21   36 1
    37   22   23 ar
    38   22   25 1
    39   23   24 ar
    40   23   37 1
    41   24   38 1
@<TRIPOS>MOLECULE
CHEMBL371007
   46    49     0     0     0
SMALL
USER_CHARGES

@<TRIPOS>ATOM
      1 C1         -0.0168    1.3884    0.0097 C.ar      1 <0>        -0.1516
      2 C2          1.1583    2.0881    0.0022 C.ar      1 <0>        -0.0534
      3 C3          2.3604    1.3608   -0.0132 C.ar      1 <0>        -0.1160
      4 C4          2.3048   -0.0552   -0.0202 C.ar      1 <0>         0.1202
      5 C5          3.5273   -0.7676   -0.0358 C.ar      1 <0>         0.1826
      6 C6          4.7152   -0.0447   -0.0432 C.ar      1 <0>         0.0318
      7 N1          4.7162    1.2918   -0.0356 N.ar      1 <0>        -0.4327
      8 C7          3.6154    1.9979   -0.0222 C.ar      1 <0>         0.1359
      9 C8          3.6911    3.5030   -0.0153 C.3       1 <0>         0.1939
     10 C9          4.0750    4.0006   -1.4107 C.3       1 <0>        -0.1532
     11 C10         5.5336    3.7077   -1.6575 C.2       1 <0>         0.5310
     12 O1          5.9146    3.4219   -2.7724 O.2       1 <0>        -0.4948
     13 N2          6.4120    3.7640   -0.6397 N.am      1 <0>        -0.6677
     14 C11         5.9992    3.9915    0.6183 C.2       1 <0>         0.7238
     15 O2          6.8215    4.2541    1.4739 O.2       1 <0>        -0.5496
     16 N3          4.7000    3.9362    0.9532 N.am      1 <0>        -0.7153
     17 C12         6.0013   -0.7682   -0.0594 C.2       1 <0>         0.5731
     18 O3          6.0149   -1.9840   -0.0661 O.2       1 <0>        -0.5111
     19 N4          7.1609   -0.0813   -0.0668 N.am      1 <0>        -0.7085
     20 C13         8.4376   -0.7995   -0.0829 C.3       1 <0>         0.1619
     21 C14         9.5720    0.1925   -0.0884 C.ar      1 <0>        -0.1256
     22 C15        10.0767    0.6580   -1.2883 C.ar      1 <0>        -0.0694
     23 C16        11.1166    1.5681   -1.2946 C.ar      1 <0>        -0.1555
     24 C17        11.6531    2.0138   -0.0985 C.ar      1 <0>         0.1103
     25 C18        11.1469    1.5469    1.1027 C.ar      1 <0>        -0.1526
     26 C19        10.1034    0.6408    1.1066 C.ar      1 <0>        -0.0665
     27 F1         12.6701    2.9031   -0.1034 F         1 <0>        -0.1364
     28 O4          3.5402   -2.1224   -0.0427 O.3       1 <0>        -0.4488
     29 N5          1.1280   -0.6785   -0.0128 N.ar      1 <0>        -0.4505
     30 C20         0.0021   -0.0041    0.0020 C.ar      1 <0>         0.1477
     31 H1         -0.9592    1.9157    0.0260 H         1 <0>         0.1519
     32 H2          1.1621    3.1681    0.0076 H         1 <0>         0.1532
     33 H3          2.7207    3.9142    0.2626 H         1 <0>         0.1332
     34 H4          3.4692    3.4895   -2.1590 H         1 <0>         0.1273
     35 H5          3.9035    5.0752   -1.4741 H         1 <0>         0.1290
     36 H6          7.3573    3.6382   -0.8170 H         1 <0>         0.4261
     37 H7          4.4261    4.1866    1.8494 H         1 <0>         0.4274
     38 H8          7.1500    0.8886   -0.0615 H         1 <0>         0.4080
     39 H9          8.5109   -1.4303    0.8031 H         1 <0>         0.0828
     40 H10         8.4938   -1.4207   -0.9768 H         1 <0>         0.0829
     41 H11         9.6583    0.3100   -2.2212 H         1 <0>         0.1354
     42 H12        11.5110    1.9313   -2.2321 H         1 <0>         0.1390
     43 H13        11.5648    1.8936    2.0363 H         1 <0>         0.1391
     44 H14         9.7054    0.2799    2.0434 H         1 <0>         0.1349
     45 H15         3.5353   -2.5112   -0.9281 H         1 <0>         0.4046
     46 H16        -0.9339   -0.5429    0.0084 H         1 <0>         0.1723
@<TRIPOS>BOND
     1    1   30 ar
     2    1    2 ar
     3    1   31 1
     4    2    3 ar
     5    2   32 1
     6    3    8 ar
     7    3    4 ar
     8    4    5 ar
     9    4   29 ar
    10    5    6 ar
    11    5   28 1
    12    6    7 ar
    13    6   17 1
    14    7    8 ar
    15    8    9 1
    16    9   16 1
    17    9   10 1
    18    9   33 1
    19   10   11 1
    20   10   34 1
    21   10   35 1
    22   11   12 2
    23   11   13 am
    24   13   14 am
    25   13   36 1
    26   14   15 2
    27   14   16 am
    28   16   37 1
    29   17   18 2
    30   17   19 am
    31   19   20 1
    32   19   38 1
    33   20   21 1
    34   20   39 1
    35   20   40 1
    36   21   26 ar
    37   21   22 ar
    38   22   23 ar
    39   22   41 1
    40   23   24 ar
    41   23   42 1
    42   24   25 ar
    43   24   27 1
    44   25   26 ar
    45   25   43 1
    46   26   44 1
    47   28   45 1
    48   29   30 ar
    49   30   46 1
@<TRIPOS>MOLECULE
CHEMBL371007__1
   46    49     0     0     0
SMALL
USER_CHARGES

@<TRIPOS>ATOM
      1 C1         -0.0168    1.3884    0.0097 C.ar      1 <0>        -0.1499
      2 C2          1.1583    2.0881    0.0022 C.ar      1 <0>        -0.0532
      3 C3          2.3604    1.3608   -0.0132 C.ar      1 <0>        -0.1148
      4 C4          2.3048   -0.0552   -0.0202 C.ar      1 <0>         0.1197
      5 C5          3.5273   -0.7676   -0.0358 C.ar      1 <0>         0.1875
      6 C6          4.7152   -0.0447   -0.0432 C.ar      1 <0>         0.0286
      7 N1          4.7162    1.2918   -0.0356 N.ar      1 <0>        -0.4271
      8 C7          3.6154    1.9979   -0.0222 C.ar      1 <0>         0.1484
      9 C8          3.6911    3.5030   -0.0153 C.3       1 <0>         0.1965
     10 C9          4.1022    3.9865    1.3773 C.3       1 <0>        -0.1539
     11 C10         4.4927    5.4412    1.3015 C.2       1 <0>         0.5266
     12 O1          4.2600    6.1809    2.2334 O.2       1 <0>        -0.4905
     13 N2          5.1000    5.9175    0.1993 N.am      1 <0>        -0.6753
     14 C11         5.2879    5.1379   -0.8785 C.2       1 <0>         0.7162
     15 O2          6.0253    5.5201   -1.7657 O.2       1 <0>        -0.5473
     16 N3          4.6810    3.9461   -0.9989 N.am      1 <0>        -0.7120
     17 C12         6.0013   -0.7682   -0.0594 C.2       1 <0>         0.5736
     18 O3          6.0149   -1.9840   -0.0661 O.2       1 <0>        -0.5111
     19 N4          7.1609   -0.0813   -0.0668 N.am      1 <0>        -0.7089
     20 C13         8.4376   -0.7995   -0.0829 C.3       1 <0>         0.1627
     21 C14         9.5720    0.1925   -0.0884 C.ar      1 <0>        -0.1243
     22 C15        10.0767    0.6580   -1.2883 C.ar      1 <0>        -0.0680
     23 C16        11.1166    1.5681   -1.2946 C.ar      1 <0>        -0.1543
     24 C17        11.6531    2.0138   -0.0985 C.ar      1 <0>         0.1100
     25 C18        11.1469    1.5469    1.1027 C.ar      1 <0>        -0.1555
     26 C19        10.1034    0.6408    1.1066 C.ar      1 <0>        -0.0692
     27 F1         12.6701    2.9031   -0.1034 F         1 <0>        -0.1363
     28 O4          3.5402   -2.1224   -0.0427 O.3       1 <0>        -0.4485
     29 N5          1.1280   -0.6785   -0.0128 N.ar      1 <0>        -0.4504
     30 C20         0.0021   -0.0041    0.0020 C.ar      1 <0>         0.1498
     31 H1         -0.9592    1.9157    0.0260 H         1 <0>         0.1525
     32 H2          1.1621    3.1681    0.0076 H         1 <0>         0.1531
     33 H3          2.7155    3.9169   -0.2701 H         1 <0>         0.1081
     34 H4          3.2648    3.8696    2.0652 H         1 <0>         0.1308
     35 H5          4.9499    3.3998    1.7310 H         1 <0>         0.1252
     36 H6          5.4064    6.8377    0.1826 H         1 <0>         0.4301
     37 H7          4.9012    3.3708   -1.7483 H         1 <0>         0.4275
     38 H8          7.1500    0.8886   -0.0615 H         1 <0>         0.4112
     39 H9          8.5109   -1.4303    0.8031 H         1 <0>         0.0825
     40 H10         8.4938   -1.4207   -0.9768 H         1 <0>         0.0826
     41 H11         9.6583    0.3100   -2.2212 H         1 <0>         0.1356
     42 H12        11.5110    1.9313   -2.2321 H         1 <0>         0.1391
     43 H13        11.5648    1.8936    2.0363 H         1 <0>         0.1386
     44 H14         9.7054    0.2799    2.0434 H         1 <0>         0.1353
     45 H15         3.5353   -2.5112   -0.9281 H         1 <0>         0.4057
     46 H16        -0.9339   -0.5429    0.0084 H         1 <0>         0.1733
@<TRIPOS>BOND
     1    1   30 ar
     2    1    2 ar
     3    1   31 1
     4    2    3 ar
     5    2   32 1
     6    3    8 ar
     7    3    4 ar
     8    4    5 ar
     9    4   29 ar
    10    5    6 ar
    11    5   28 1
    12    6    7 ar
    13    6   17 1
    14    7    8 ar
    15    8    9 1
    16    9   16 1
    17    9   10 1
    18    9   33 1
    19   10   11 1
    20   10   34 1
    21   10   35 1
    22   11   12 2
    23   11   13 am
    24   13   14 am
    25   13   36 1
    26   14   15 2
    27   14   16 am
    28   16   37 1
    29   17   18 2
    30   17   19 am
    31   19   20 1
    32   19   38 1
    33   20   21 1
    34   20   39 1
    35   20   40 1
    36   21   26 ar
    37   21   22 ar
    38   22   23 ar
    39   22   41 1
    40   23   24 ar
    41   23   42 1
    42   24   25 ar
    43   24   27 1
    44   25   26 ar
    45   25   43 1
    46   26   44 1
    47   28   45 1
    48   29   30 ar
    49   30   46 1
@<TRIPOS>MOLECULE
CHEMBL370620
   47    49     0     0     0
SMALL
USER_CHARGES

@<TRIPOS>ATOM
      1 C1         -0.0167    1.3781    0.0096 C.ar      1 <0>        -0.1072
      2 C2          1.1709    2.0855    0.0021 C.ar      1 <0>        -0.1222
      3 C3          2.3773    1.4107   -0.0130 C.ar      1 <0>        -0.0996
      4 C4          2.3960    0.0285   -0.0201 C.ar      1 <0>        -0.1263
      5 C5          1.2084   -0.6789   -0.0117 C.ar      1 <0>        -0.0871
      6 C6          0.0021   -0.0041    0.0020 C.ar      1 <0>        -0.1243
      7 C7          3.7112   -0.7071   -0.0376 C.3       1 <0>         0.1476
      8 N1          4.1518   -0.9524    1.3379 N.am      1 <0>        -0.5206
      9 C8          4.9243   -0.0276    1.9607 C.2       1 <0>         0.2335
     10 C9          5.3414   -0.2583    3.2621 C.2       1 <0>        -0.3274
     11 C10         4.9197   -1.5120    3.9121 C.2       1 <0>         0.5558
     12 O1          5.2568   -1.7652    5.0533 O.2       1 <0>        -0.4741
     13 N2          4.1505   -2.3726    3.2123 N.am      1 <0>        -0.5470
     14 C11         3.7771   -2.0843    1.9540 C.2       1 <0>         0.6989
     15 O2          3.0805   -2.8777    1.3518 O.2       1 <0>        -0.5338
     16 C12         3.7156   -3.6275    3.8307 C.3       1 <0>         0.1524
     17 C13         2.3991   -3.4121    4.5318 C.ar      1 <0>        -0.1187
     18 C14         2.3779   -3.0151    5.8557 C.ar      1 <0>        -0.0898
     19 C15         1.1703   -2.8175    6.4988 C.ar      1 <0>        -0.1246
     20 C16        -0.0161   -3.0166    5.8178 C.ar      1 <0>        -0.1110
     21 C17         0.0051   -3.4128    4.4936 C.ar      1 <0>        -0.1303
     22 C18         1.2127   -3.6061    3.8493 C.ar      1 <0>        -0.0931
     23 C19         6.1752    0.7128    3.9689 C.2       1 <0>         0.4179
     24 C20         6.6160    0.4391    5.3838 C.3       1 <0>        -0.1921
     25 C21         7.4586    1.5865    5.8783 C.2       1 <0>         0.2894
     26 O3          7.6785    2.5293    5.1563 O.2       1 <0>        -0.4275
     27 C22         8.0217    1.5577    7.2613 C.2       1 <0>         0.4684
     28 O4          8.7040    2.4869    7.6618 O.co2     1 <0>        -0.6562
     29 O5          7.7994    0.6049    7.9910 O.co2     1 <0>        -0.6654
     30 O6          6.5123    1.7393    3.4161 O.2       1 <0>        -0.4320
     31 H1         -0.9591    1.9053    0.0259 H         1 <0>         0.1231
     32 H2          1.1563    3.1654    0.0076 H         1 <0>         0.1259
     33 H3          3.3051    1.9634   -0.0196 H         1 <0>         0.1256
     34 H4          1.2231   -1.7588   -0.0176 H         1 <0>         0.1308
     35 H5         -0.9258   -0.5567    0.0082 H         1 <0>         0.1235
     36 H6          3.5884   -1.6586   -0.5549 H         1 <0>         0.1163
     37 H7          4.4573   -0.1052   -0.5563 H         1 <0>         0.1098
     38 H8          5.2115    0.8785    1.4479 H         1 <0>         0.1898
     39 H9          3.5968   -4.3898    3.0608 H         1 <0>         0.1067
     40 H10         4.4630   -3.9545    4.5535 H         1 <0>         0.1119
     41 H11         3.3048   -2.8595    6.3877 H         1 <0>         0.1342
     42 H12         1.1538   -2.5080    7.5334 H         1 <0>         0.1250
     43 H13        -0.9596   -2.8629    6.3205 H         1 <0>         0.1205
     44 H14        -0.9218   -3.5686    3.9617 H         1 <0>         0.1200
     45 H15         1.2293   -3.9121    2.8137 H         1 <0>         0.1269
     46 H16         5.7396    0.3301    6.0227 H         1 <0>         0.1277
     47 H17         7.2017   -0.4798    5.4105 H         1 <0>         0.1285
@<TRIPOS>BOND
     1    1    6 ar
     2    1    2 ar
     3    1   31 1
     4    2    3 ar
     5    2   32 1
     6    3    4 ar
     7    3   33 1
     8    4    5 ar
     9    4    7 1
    10    5    6 ar
    11    5   34 1
    12    6   35 1
    13    7    8 1
    14    7   36 1
    15    7   37 1
    16    8   14 am
    17    8    9 1
    18    9   10 2
    19    9   38 1
    20   10   11 1
    21   10   23 1
    22   11   12 2
    23   11   13 am
    24   13   14 am
    25   13   16 1
    26   14   15 2
    27   16   17 1
    28   16   39 1
    29   16   40 1
    30   17   22 ar
    31   17   18 ar
    32   18   19 ar
    33   18   41 1
    34   19   20 ar
    35   19   42 1
    36   20   21 ar
    37   20   43 1
    38   21   22 ar
    39   21   44 1
    40   22   45 1
    41   23   24 1
    42   23   30 2
    43   24   25 1
    44   24   46 1
    45   24   47 1
    46   25   26 2
    47   25   27 1
    48   27   28 2
    49   27   29 1
@<TRIPOS>MOLECULE
CHEMBL202166
   47    49     0     0     0
SMALL
USER_CHARGES

@<TRIPOS>ATOM
      1 C1         -0.0167    1.3780    0.0096 C.ar      1 <0>        -0.1340
      2 C2          1.1706    2.0866    0.0021 C.ar      1 <0>        -0.0781
      3 C3          2.3773    1.4137   -0.0131 C.ar      1 <0>        -0.1566
      4 C4          2.3974    0.0291   -0.0207 C.ar      1 <0>         0.1167
      5 C5          1.2080   -0.6793   -0.0132 C.ar      1 <0>        -0.1598
      6 C6          0.0021   -0.0041    0.0020 C.ar      1 <0>        -0.0557
      7 C7          1.2281   -2.1862   -0.0220 C.3       1 <0>         0.1502
      8 N1          1.4877   -2.6790    1.3330 N.am      1 <0>        -0.5220
      9 C8          2.7689   -2.8797    1.7305 C.2       1 <0>         0.2321
     10 C9          3.0157   -3.3455    3.0123 C.2       1 <0>        -0.3282
     11 C10         1.8600   -3.6026    3.8899 C.2       1 <0>         0.5570
     12 O1          2.0190   -4.0117    5.0245 O.2       1 <0>        -0.4744
     13 N2          0.6210   -3.3732    3.4060 N.am      1 <0>        -0.5490
     14 C11         0.4525   -2.9161    2.1536 C.2       1 <0>         0.6910
     15 O2         -0.6758   -2.7151    1.7486 O.2       1 <0>        -0.5153
     16 C12        -0.5481   -3.6196    4.2538 C.3       1 <0>         0.1553
     17 C13        -0.8868   -2.3663    5.0191 C.ar      1 <0>        -0.1561
     18 C14        -0.4881   -2.2313    6.3356 C.ar      1 <0>        -0.0595
     19 C15        -0.7985   -1.0819    7.0378 C.ar      1 <0>        -0.1358
     20 C16        -1.5081   -0.0660    6.4243 C.ar      1 <0>        -0.0814
     21 C17        -1.9072   -0.1986    5.1081 C.ar      1 <0>        -0.1672
     22 C18        -1.5922   -1.3475    4.4020 C.ar      1 <0>         0.1192
     23 F1         -1.9779   -1.4763    3.1137 F         1 <0>        -0.1161
     24 C19         4.3819   -3.5755    3.4798 C.2       1 <0>         0.4165
     25 C20         4.6246   -4.0823    4.8781 C.3       1 <0>        -0.1913
     26 C21         6.1063   -4.2334    5.1076 C.2       1 <0>         0.2888
     27 O3          6.8850   -3.9579    4.2265 O.2       1 <0>        -0.4267
     28 C22         6.6119   -4.7239    6.4246 C.2       1 <0>         0.4689
     29 O4          7.8118   -4.8462    6.6105 O.co2     1 <0>        -0.6562
     30 O5          5.8249   -5.0023    7.3150 O.co2     1 <0>        -0.6659
     31 O6          5.3206   -3.3581    2.7417 O.2       1 <0>        -0.4295
     32 F2          3.5766   -0.6299   -0.0360 F         1 <0>        -0.1323
     33 H1         -0.9594    1.9048    0.0260 H         1 <0>         0.1322
     34 H2          1.1547    3.1665    0.0077 H         1 <0>         0.1348
     35 H3          3.3046    1.9675   -0.0193 H         1 <0>         0.1396
     36 H4         -0.9259   -0.5565    0.0083 H         1 <0>         0.1409
     37 H5          0.2640   -2.5604   -0.3662 H         1 <0>         0.1227
     38 H6          2.0136   -2.5351   -0.6922 H         1 <0>         0.1117
     39 H7          3.5878   -2.6791    1.0555 H         1 <0>         0.1911
     40 H8         -1.3955   -3.9047    3.6302 H         1 <0>         0.1098
     41 H9         -0.3257   -4.4243    4.9545 H         1 <0>         0.1169
     42 H10         0.0658   -3.0243    6.8160 H         1 <0>         0.1427
     43 H11        -0.4870   -0.9774    8.0666 H         1 <0>         0.1330
     44 H12        -1.7507    0.8313    6.9742 H         1 <0>         0.1317
     45 H13        -2.4617    0.5949    4.6292 H         1 <0>         0.1329
     46 H14         4.2159   -3.3730    5.5977 H         1 <0>         0.1273
     47 H15         4.1370   -5.0491    5.0039 H         1 <0>         0.1283
@<TRIPOS>BOND
     1    1    6 ar
     2    1    2 ar
     3    1   33 1
     4    2    3 ar
     5    2   34 1
     6    3    4 ar
     7    3   35 1
     8    4    5 ar
     9    4   32 1
    10    5    6 ar
    11    5    7 1
    12    6   36 1
    13    7    8 1
    14    7   37 1
    15    7   38 1
    16    8   14 am
    17    8    9 1
    18    9   10 2
    19    9   39 1
    20   10   11 1
    21   10   24 1
    22   11   12 2
    23   11   13 am
    24   13   14 am
    25   13   16 1
    26   14   15 2
    27   16   17 1
    28   16   40 1
    29   16   41 1
    30   17   22 ar
    31   17   18 ar
    32   18   19 ar
    33   18   42 1
    34   19   20 ar
    35   19   43 1
    36   20   21 ar
    37   20   44 1
    38   21   22 ar
    39   21   45 1
    40   22   23 1
    41   24   25 1
    42   24   31 2
    43   25   26 1
    44   25   46 1
    45   25   47 1
    46   26   27 2
    47   26   28 1
    48   28   29 2
    49   28   30 1
@<TRIPOS>MOLECULE
CHEMBL217285
   32    33     0     0     0
SMALL
USER_CHARGES

@<TRIPOS>ATOM
      1 C1         -0.0127    1.0858    0.0080 C.3       1 <0>        -0.1096
      2 C2         -0.7416    1.5850   -1.2129 C.2       1 <0>         0.3600
      3 N1         -1.2223    0.7163   -2.0522 N.2       1 <0>        -0.4848
      4 C3         -1.8850    1.0840   -3.1639 C.2       1 <0>         0.0419
      5 C4         -2.0678    2.4307   -3.4344 C.2       1 <0>         0.0621
      6 C5         -1.5194    3.4003   -2.4774 C.2       1 <0>         0.5001
      7 N2         -0.8752    2.9217   -1.3902 N.am      1 <0>        -0.6181
      8 O1         -1.6450    4.5992   -2.6561 O.2       1 <0>        -0.5149
      9 O2         -2.7302    2.8394   -4.5451 O.3       1 <0>        -0.4103
     10 C6         -2.4141    0.0583   -4.0908 C.2       1 <0>         0.5775
     11 O3         -3.0120    0.3959   -5.0935 O.2       1 <0>        -0.5078
     12 N3         -2.2328   -1.2500   -3.8226 N.am      1 <0>        -0.7113
     13 C7         -2.7565   -2.2652   -4.7399 C.3       1 <0>         0.1624
     14 C8         -2.4222   -3.6375   -4.2144 C.ar      1 <0>        -0.1212
     15 C9         -1.2352   -4.2459   -4.5777 C.ar      1 <0>        -0.0688
     16 C10        -0.9273   -5.5041   -4.0961 C.ar      1 <0>        -0.1553
     17 C11        -1.8082   -6.1553   -3.2493 C.ar      1 <0>         0.1080
     18 C12        -2.9968   -5.5450   -2.8861 C.ar      1 <0>        -0.1553
     19 C13        -3.3001   -4.2845   -3.3648 C.ar      1 <0>        -0.0688
     20 F1         -1.5085   -7.3855   -2.7782 F         1 <0>        -0.1372
     21 H1          0.0021   -0.0041    0.0020 H         1 <0>         0.1071
     22 H2          1.0099    1.4631    0.0003 H         1 <0>         0.0946
     23 H3         -0.5229    1.4373    0.9048 H         1 <0>         0.0946
     24 H4         -0.5045    3.5362   -0.7376 H         1 <0>         0.4262
     25 H5         -2.7977    3.8001   -4.6316 H         1 <0>         0.4064
     26 H6         -1.7556   -1.5195   -3.0223 H         1 <0>         0.4115
     27 H7         -3.8386   -2.1600   -4.8188 H         1 <0>         0.0813
     28 H8         -2.3059   -2.1331   -5.7236 H         1 <0>         0.0813
     29 H9         -0.5484   -3.7379   -5.2385 H         1 <0>         0.1358
     30 H10        -0.0001   -5.9794   -4.3803 H         1 <0>         0.1385
     31 H11        -3.6848   -6.0521   -2.2259 H         1 <0>         0.1385
     32 H12        -4.2251   -3.8064   -3.0781 H         1 <0>         0.1358
@<TRIPOS>BOND
     1    1   21 1
     2    1   22 1
     3    1   23 1
     4    1    2 1
     5    2    3 2
     6    2    7 1
     7    3    4 1
     8    4   10 1
     9    4    5 2
    10    5    9 1
    11    5    6 1
    12    6    8 2
    13    6    7 am
    14    7   24 1
    15    9   25 1
    16   10   11 2
    17   10   12 am
    18   12   13 1
    19   12   26 1
    20   13   14 1
    21   13   27 1
    22   13   28 1
    23   14   19 ar
    24   14   15 ar
    25   15   16 ar
    26   15   29 1
    27   16   17 ar
    28   16   30 1
    29   17   18 ar
    30   17   20 1
    31   18   19 ar
    32   18   31 1
    33   19   32 1
@<TRIPOS>MOLECULE
CHEMBL217285__1
   32    33     0     0     0
SMALL
USER_CHARGES

@<TRIPOS>ATOM
      1 C1         -0.1128    2.5945   -4.8122 C.3       1 <0>        -0.1183
      2 C2         -0.7887    2.3023   -3.4973 C.2       1 <0>         0.4342
      3 N1         -2.1118    2.4886   -3.3977 N.pl3     1 <0>        -0.5854
      4 C3         -2.7803    2.2376   -2.2212 C.2       1 <0>         0.0005
      5 C4         -2.0678    1.7900   -1.1414 C.2       1 <0>         0.0730
      6 C5         -0.6162    1.6027   -1.3066 C.2       1 <0>         0.4936
      7 N2         -0.0627    1.8720   -2.4998 N.2       1 <0>        -0.5746
      8 O1          0.0694    1.2063   -0.3782 O.2       1 <0>        -0.4868
      9 O2         -2.6779    1.5281    0.0408 O.3       1 <0>        -0.4198
     10 C6         -4.2383    2.4476   -2.1252 C.2       1 <0>         0.5688
     11 O3         -4.8323    2.1333   -1.1122 O.2       1 <0>        -0.4858
     12 N3         -4.9109    2.9879   -3.1607 N.am      1 <0>        -0.7273
     13 C7         -6.3361    3.2992   -3.0259 C.3       1 <0>         0.1650
     14 C8         -6.8455    3.8893   -4.3156 C.ar      1 <0>        -0.1275
     15 C9         -6.7969    5.2562   -4.5165 C.ar      1 <0>        -0.0693
     16 C10        -7.2634    5.7985   -5.6989 C.ar      1 <0>        -0.1550
     17 C11        -7.7795    4.9721   -6.6828 C.ar      1 <0>         0.1114
     18 C12        -7.8276    3.6032   -6.4805 C.ar      1 <0>        -0.1550
     19 C13        -7.3557    3.0628   -5.2993 C.ar      1 <0>        -0.0691
     20 F1         -8.2361    5.5011   -7.8390 F         1 <0>        -0.1353
     21 H1          0.2092    3.6357   -4.8317 H         1 <0>         0.1072
     22 H2          0.7540    1.9439   -4.9276 H         1 <0>         0.1126
     23 H3         -0.8128    2.4153   -5.6283 H         1 <0>         0.0912
     24 H4         -2.6074    2.8064   -4.1686 H         1 <0>         0.4209
     25 H5         -2.0779    1.2178    0.7328 H         1 <0>         0.4126
     26 H6         -4.4513    3.1706   -3.9951 H         1 <0>         0.3948
     27 H7         -6.8877    2.3864   -2.8012 H         1 <0>         0.0856
     28 H8         -6.4764    4.0169   -2.2176 H         1 <0>         0.0845
     29 H9         -6.3947    5.9006   -3.7488 H         1 <0>         0.1365
     30 H10        -7.2257    6.8664   -5.8555 H         1 <0>         0.1399
     31 H11        -8.2302    2.9577   -7.2471 H         1 <0>         0.1399
     32 H12        -7.3890    1.9946   -5.1432 H         1 <0>         0.1367
@<TRIPOS>BOND
     1    1   21 1
     2    1   22 1
     3    1   23 1
     4    1    2 1
     5    2    3 1
     6    2    7 2
     7    3   24 1
     8    3    4 1
     9    4   10 1
    10    4    5 2
    11    5    9 1
    12    5    6 1
    13    6    8 2
    14    6    7 1
    15    9   25 1
    16   10   11 2
    17   10   12 am
    18   12   13 1
    19   12   26 1
    20   13   14 1
    21   13   27 1
    22   13   28 1
    23   14   19 ar
    24   14   15 ar
    25   15   16 ar
    26   15   29 1
    27   16   17 ar
    28   16   30 1
    29   17   18 ar
    30   17   20 1
    31   18   19 ar
    32   18   31 1
    33   19   32 1
@<TRIPOS>MOLECULE
CHEMBL204656
   53    55     0     0     0
SMALL
USER_CHARGES

@<TRIPOS>ATOM
      1 C1          0.8142    0.0161   -1.1809 C.3       1 <0>        -0.1409
      2 C2          0.0853    0.2768    0.1389 C.3       1 <0>        -0.1087
      3 C3         -1.4026   -0.0374   -0.0296 C.3       1 <0>        -0.1488
      4 C4          0.6747   -0.6167    1.2321 C.3       1 <0>         0.1271
      5 H1          0.6053   -1.6603    0.9251 H         1 <0>         0.1093
      6 C5          2.1424   -0.2476    1.4564 C.3       1 <0>         0.0620
      7 O1          2.2425    1.1456    1.7580 O.3       1 <0>        -0.5545
      8 N1         -0.0732   -0.4232    2.4769 N.pl3     1 <0>        -0.4875
      9 C6         -0.2149    0.8198    2.9525 C.2       1 <0>         0.1703
     10 C7         -0.9053    1.0869    4.1191 C.2       1 <0>        -0.3074
     11 C8         -1.5051   -0.0339    4.8637 C.2       1 <0>         0.4171
     12 O2         -2.1240    0.1493    5.8973 O.2       1 <0>        -0.4551
     13 C9         -1.3257   -1.3854    4.3056 C.ar      1 <0>        -0.2252
     14 C10        -0.6058   -1.5288    3.1054 C.ar      1 <0>         0.2414
     15 C11        -0.4339   -2.7983    2.5662 C.ar      1 <0>        -0.2832
     16 C12        -0.9747   -3.8982    3.2099 C.ar      1 <0>         0.1914
     17 C13        -1.6908   -3.7448    4.3951 C.ar      1 <0>        -0.1671
     18 C14        -1.8594   -2.5058    4.9445 C.ar      1 <0>         0.0176
     19 C15        -2.2720   -4.9541    5.0813 C.3       1 <0>        -0.0232
     20 C16        -1.2243   -5.5833    5.9631 C.ar      1 <0>        -0.0942
     21 C17        -0.4546   -6.6274    5.4852 C.ar      1 <0>        -0.0759
     22 C18         0.5065   -7.2051    6.2932 C.ar      1 <0>        -0.1219
     23 C19         0.6998   -6.7398    7.5807 C.ar      1 <0>        -0.0908
     24 C20        -0.0686   -5.6955    8.0613 C.ar      1 <0>        -0.0750
     25 C21        -1.0286   -5.1121    7.2496 C.ar      1 <0>         0.1160
     26 F1         -1.7762   -4.0877    7.7155 F         1 <0>        -0.1184
     27 Cl1         0.1734   -5.1113    9.6781 Cl        1 <0>        -0.0514
     28 O3         -0.8060   -5.1370    2.6814 O.3       1 <0>        -0.3089
     29 C22        -0.0626   -5.2275    1.4644 C.3       1 <0>         0.0247
     30 C23        -1.0384    2.4630    4.6082 C.2       1 <0>         0.5385
     31 O4         -0.5356    3.3866    3.9817 O.co2     1 <0>        -0.7041
     32 O5         -1.6523    2.6881    5.6431 O.co2     1 <0>        -0.6691
     33 H2          0.7822   -1.0492   -1.4093 H         1 <0>         0.0517
     34 H3          0.3277    0.5740   -1.9810 H         1 <0>         0.0619
     35 H4          1.8519    0.3377   -1.0925 H         1 <0>         0.0586
     36 H5          0.2062    1.3229    0.4202 H         1 <0>         0.0966
     37 H6         -1.5235   -1.0835   -0.3109 H         1 <0>         0.0506
     38 H7         -1.9218    0.1484    0.9107 H         1 <0>         0.0604
     39 H8         -1.8224    0.5992   -0.8084 H         1 <0>         0.0600
     40 H9          2.5403   -0.8289    2.2882 H         1 <0>         0.0503
     41 H10         2.7139   -0.4660    0.5543 H         1 <0>         0.0622
     42 H11         3.1470    1.4507    1.9124 H         1 <0>         0.3821
     43 H12         0.2253    1.6411    2.4065 H         1 <0>         0.1781
     44 H13         0.1195   -2.9262    1.6477 H         1 <0>         0.1352
     45 H14        -2.4151   -2.3918    5.8635 H         1 <0>         0.1434
     46 H15        -3.1249   -4.6521    5.6892 H         1 <0>         0.0862
     47 H16        -2.5973   -5.6758    4.3319 H         1 <0>         0.0923
     48 H17        -0.6047   -6.9922    4.4798 H         1 <0>         0.1411
     49 H18         1.1068   -8.0210    5.9186 H         1 <0>         0.1359
     50 H19         1.4509   -7.1922    8.2112 H         1 <0>         0.1393
     51 H20        -0.0027   -6.2700    1.1518 H         1 <0>         0.0997
     52 H21        -0.5608   -4.6441    0.6901 H         1 <0>         0.0555
     53 H22         0.9428   -4.8373    1.6229 H         1 <0>         0.0547
@<TRIPOS>BOND
     1    1    2 1
     2    1   33 1
     3    1   34 1
     4    1   35 1
     5    2    3 1
     6    2    4 1
     7    2   36 1
     8    3   37 1
     9    3   38 1
    10    3   39 1
    11    4    5 1
    12    4    6 1
    13    4    8 1
    14    6    7 1
    15    6   40 1
    16    6   41 1
    17    7   42 1
    18    8   14 1
    19    8    9 1
    20    9   10 2
    21    9   43 1
    22   10   11 1
    23   10   30 1
    24   11   12 2
    25   11   13 1
    26   13   18 ar
    27   13   14 ar
    28   14   15 ar
    29   15   16 ar
    30   15   44 1
    31   16   17 ar
    32   16   28 1
    33   17   18 ar
    34   17   19 1
    35   18   45 1
    36   19   20 1
    37   19   46 1
    38   19   47 1
    39   20   25 ar
    40   20   21 ar
    41   21   22 ar
    42   21   48 1
    43   22   23 ar
    44   22   49 1
    45   23   24 ar
    46   23   50 1
    47   24   25 ar
    48   24   27 1
    49   25   26 1
    50   28   29 1
    51   29   51 1
    52   29   52 1
    53   29   53 1
    54   30   31 2
    55   30   32 1
@<TRIPOS>MOLECULE
CHEMBL204656__1
   54    56     0     0     0
SMALL
USER_CHARGES

@<TRIPOS>ATOM
      1 C1         -0.0186    1.5257    0.0310 C.3       1 <0>        -0.1500
      2 C2          0.0021   -0.0042    0.0225 C.3       1 <0>        -0.1114
      3 C3          0.7244   -0.5113    1.2724 C.3       1 <0>        -0.1553
      4 C4         -1.4333   -0.5336    0.0129 C.3       1 <0>         0.0886
      5 H1         -1.9562   -0.1823    0.9024 H         1 <0>         0.1324
      6 C5         -2.1555   -0.0265   -1.2370 C.3       1 <0>         0.0523
      7 O1         -3.5274   -0.4235   -1.1884 O.3       1 <0>        -0.5704
      8 N1         -1.4134   -1.9985    0.0048 N.ar      1 <0>        -0.3659
      9 C6         -0.9267   -2.6204   -1.0374 C.ar      1 <0>         0.2308
     10 C7         -0.8818   -4.0242   -1.1023 C.ar      1 <0>        -0.2163
     11 C8         -1.3699   -4.7773   -0.0241 C.ar      1 <0>         0.3113
     12 O2         -1.3440   -6.1288   -0.0481 O.3       1 <0>        -0.4423
     13 C9         -1.8888   -4.0778    1.0870 C.ar      1 <0>        -0.1487
     14 C10        -1.8901   -2.6613    1.0688 C.ar      1 <0>         0.2023
     15 C11        -2.4005   -1.9658    2.1741 C.ar      1 <0>        -0.2581
     16 C12        -2.8853   -2.6667    3.2571 C.ar      1 <0>         0.2203
     17 C13        -2.8739   -4.0646    3.2672 C.ar      1 <0>        -0.1025
     18 C14        -2.3952   -4.7635    2.2021 C.ar      1 <0>        -0.0083
     19 C15        -3.4099   -4.8058    4.4649 C.3       1 <0>        -0.0352
     20 C16        -4.9032   -4.9598    4.3334 C.ar      1 <0>        -0.1092
     21 C17        -5.7480   -4.0424    4.9299 C.ar      1 <0>        -0.0745
     22 C18        -7.1178   -4.1828    4.8099 C.ar      1 <0>        -0.1166
     23 C19        -7.6454   -5.2409    4.0931 C.ar      1 <0>        -0.0817
     24 C20        -6.8027   -6.1599    3.4953 C.ar      1 <0>        -0.0739
     25 C21        -5.4291   -6.0164    3.6106 C.ar      1 <0>         0.1151
     26 F1         -4.6042   -6.9100    3.0222 F         1 <0>        -0.1218
     27 Cl1        -7.4649   -7.4888    2.5957 Cl        1 <0>        -0.0421
     28 O3         -3.3793   -1.9919    4.3266 O.3       1 <0>        -0.2928
     29 C22        -3.3635   -0.5647    4.2570 C.3       1 <0>         0.0156
     30 C23        -0.3301   -4.6950   -2.2865 C.2       1 <0>         0.5286
     31 O4          0.0937   -4.0317   -3.2237 O.co2     1 <0>        -0.6655
     32 O5         -0.2942   -5.9173   -2.3362 O.co2     1 <0>        -0.6375
     33 H2          1.0040    1.9029    0.0379 H         1 <0>         0.0772
     34 H3         -0.5332    1.8869   -0.8594 H         1 <0>         0.0676
     35 H4         -0.5415    1.8770    0.9205 H         1 <0>         0.0641
     36 H5          0.5250   -0.3556   -0.8670 H         1 <0>         0.0963
     37 H6          1.7470   -0.1341    1.2793 H         1 <0>         0.0785
     38 H7          0.2015   -0.1599    2.1619 H         1 <0>         0.0628
     39 H8          0.7391   -1.6012    1.2664 H         1 <0>         0.0531
     40 H9         -2.0932    1.0610   -1.2765 H         1 <0>         0.0907
     41 H10        -1.6860   -0.4499   -2.1249 H         1 <0>         0.0702
     42 H11        -4.0475   -0.1354   -1.9510 H         1 <0>         0.3977
     43 H12        -0.5504   -2.0420   -1.8682 H         1 <0>         0.2057
     44 H13        -2.4134   -0.8859    2.1769 H         1 <0>         0.1562
     45 H14        -2.3921   -5.8433    2.2207 H         1 <0>         0.1656
     46 H15        -2.9465   -5.7908    4.5199 H         1 <0>         0.0981
     47 H16        -3.1809   -4.2454    5.3713 H         1 <0>         0.1050
     48 H17        -5.3374   -3.2157    5.4905 H         1 <0>         0.1430
     49 H18        -7.7766   -3.4656    5.2768 H         1 <0>         0.1410
     50 H19        -8.7159   -5.3497    4.0003 H         1 <0>         0.1446
     51 H20        -3.7849   -0.1516    5.1734 H         1 <0>         0.1148
     52 H21        -2.3367   -0.2180    4.1407 H         1 <0>         0.0634
     53 H22        -3.9568   -0.2360    3.4038 H         1 <0>         0.0646
     54 H23        -0.5340   -6.5131    0.3144 H         1 <0>         0.4224
@<TRIPOS>BOND
     1    1    2 1
     2    1   33 1
     3    1   34 1
     4    1   35 1
     5    2    3 1
     6    2    4 1
     7    2   36 1
     8    3   37 1
     9    3   38 1
    10    3   39 1
    11    4    5 1
    12    4    6 1
    13    4    8 1
    14    6    7 1
    15    6   40 1
    16    6   41 1
    17    7   42 1
    18    8   14 ar
    19    8    9 ar
    20    9   10 ar
    21    9   43 1
    22   10   11 ar
    23   10   30 1
    24   11   12 1
    25   11   13 ar
    26   12   54 1
    27   13   18 ar
    28   13   14 ar
    29   14   15 ar
    30   15   16 ar
    31   15   44 1
    32   16   17 ar
    33   16   28 1
    34   17   18 ar
    35   17   19 1
    36   18   45 1
    37   19   20 1
    38   19   46 1
    39   19   47 1
    40   20   25 ar
    41   20   21 ar
    42   21   22 ar
    43   21   48 1
    44   22   23 ar
    45   22   49 1
    46   23   24 ar
    47   23   50 1
    48   24   25 ar
    49   24   27 1
    50   25   26 1
    51   28   29 1
    52   29   51 1
    53   29   52 1
    54   29   53 1
    55   30   31 2
    56   30   32 1
@<TRIPOS>MOLECULE
CHEMBL320261
   49    51     0     0     0
SMALL
USER_CHARGES

@<TRIPOS>ATOM
      1 C1         -0.0167    1.3781    0.0096 C.ar      1 <0>        -0.1101
      2 C2          1.1709    2.0855    0.0021 C.ar      1 <0>        -0.1235
      3 C3          2.3773    1.4107   -0.0130 C.ar      1 <0>        -0.0944
      4 C4          2.3960    0.0285   -0.0201 C.ar      1 <0>        -0.0966
      5 C5          1.2084   -0.6789   -0.0117 C.ar      1 <0>        -0.0944
      6 C6          0.0021   -0.0041    0.0020 C.ar      1 <0>        -0.1234
      7 C7          3.7112   -0.7071   -0.0376 C.3       1 <0>         0.1006
      8 O1          4.1410   -0.9464    1.3041 O.3       1 <0>        -0.3028
      9 C8          5.3187   -1.6050    1.4665 C.ar      1 <0>         0.1559
     10 C9          5.7899   -1.8741    2.7402 C.ar      1 <0>        -0.1327
     11 C10         7.0011   -2.5520    2.9058 C.ar      1 <0>        -0.0779
     12 C11         7.7301   -2.9545    1.7830 C.ar      1 <0>        -0.1406
     13 C12         7.2495   -2.6802    0.5140 C.ar      1 <0>         0.1575
     14 C13         6.0438   -2.0116    0.3554 C.ar      1 <0>        -0.2776
     15 O2          7.9574   -3.0706   -0.5785 O.3       1 <0>        -0.3005
     16 C14         7.4033   -2.7552   -1.8574 C.3       1 <0>         0.1008
     17 C15         8.3198   -3.2622   -2.9409 C.ar      1 <0>        -0.0971
     18 C16         9.3275   -2.4516   -3.4290 C.ar      1 <0>        -0.0939
     19 C17        10.1683   -2.9166   -4.4229 C.ar      1 <0>        -0.1233
     20 C18        10.0015   -4.1924   -4.9283 C.ar      1 <0>        -0.1096
     21 C19         8.9943   -5.0033   -4.4395 C.ar      1 <0>        -0.1234
     22 C20         8.1563   -4.5398   -3.4426 C.ar      1 <0>        -0.0939
     23 C21         7.5074   -2.8404    4.2575 C.2       1 <0>         0.3857
     24 C22         8.8135   -3.5714    4.4329 C.3       1 <0>        -0.2110
     25 C23         9.1021   -3.7387    5.9025 C.2       1 <0>         0.2908
     26 O3          8.3271   -3.3087    6.7229 O.2       1 <0>        -0.4224
     27 C24        10.3466   -4.4363    6.3444 C.2       1 <0>         0.4699
     28 O4         10.5803   -4.5717    7.5346 O.co2     1 <0>        -0.6524
     29 O5         11.1297   -4.8709    5.5154 O.co2     1 <0>        -0.6678
     30 O6          6.8735   -2.4899    5.2299 O.2       1 <0>        -0.4071
     31 H1         -0.9591    1.9053    0.0259 H         1 <0>         0.1239
     32 H2          1.1563    3.1654    0.0076 H         1 <0>         0.1253
     33 H3          3.3051    1.9634   -0.0196 H         1 <0>         0.1248
     34 H4          1.2231   -1.7588   -0.0179 H         1 <0>         0.1248
     35 H5         -0.9258   -0.5567    0.0082 H         1 <0>         0.1253
     36 H6          3.5884   -1.6586   -0.5549 H         1 <0>         0.0711
     37 H7          4.4573   -0.1052   -0.5563 H         1 <0>         0.0711
     38 H8          5.2229   -1.5605    3.6043 H         1 <0>         0.1434
     39 H9          8.6667   -3.4783    1.9053 H         1 <0>         0.1490
     40 H10         5.6706   -1.8032   -0.6364 H         1 <0>         0.1348
     41 H11         6.4264   -3.2285   -1.9568 H         1 <0>         0.0705
     42 H12         7.2945   -1.6746   -1.9497 H         1 <0>         0.0706
     43 H13         9.4578   -1.4548   -3.0341 H         1 <0>         0.1247
     44 H14        10.9551   -2.2831   -4.8048 H         1 <0>         0.1253
     45 H15        10.6579   -4.5555   -5.7053 H         1 <0>         0.1238
     46 H16         8.8638   -5.9999   -4.8347 H         1 <0>         0.1252
     47 H17         7.3718   -5.1747   -3.0581 H         1 <0>         0.1247
     48 H18         8.7471   -4.5521    3.9617 H         1 <0>         0.1285
     49 H19         9.6158   -2.9985    3.9680 H         1 <0>         0.1284
@<TRIPOS>BOND
     1    1    6 ar
     2    1    2 ar
     3    1   31 1
     4    2    3 ar
     5    2   32 1
     6    3    4 ar
     7    3   33 1
     8    4    5 ar
     9    4    7 1
    10    5    6 ar
    11    5   34 1
    12    6   35 1
    13    7    8 1
    14    7   36 1
    15    7   37 1
    16    8    9 1
    17    9   14 ar
    18    9   10 ar
    19   10   11 ar
    20   10   38 1
    21   11   12 ar
    22   11   23 1
    23   12   13 ar
    24   12   39 1
    25   13   14 ar
    26   13   15 1
    27   14   40 1
    28   15   16 1
    29   16   17 1
    30   16   41 1
    31   16   42 1
    32   17   22 ar
    33   17   18 ar
    34   18   19 ar
    35   18   43 1
    36   19   20 ar
    37   19   44 1
    38   20   21 ar
    39   20   45 1
    40   21   22 ar
    41   21   46 1
    42   22   47 1
    43   23   24 1
    44   23   30 2
    45   24   25 1
    46   24   48 1
    47   24   49 1
    48   25   26 2
    49   25   27 1
    50   27   28 2
    51   27   29 1
@<TRIPOS>MOLECULE
CHEMBL321391
   45    47     0     0     0
SMALL
USER_CHARGES

@<TRIPOS>ATOM
      1 C1         -1.4728    0.8458    0.1387 C.3       1 <0>        -0.0952
      2 C2         -0.9202   -0.5547    0.0736 C.2       1 <0>         0.1668
      3 N1         -1.0052   -1.3660   -0.9351 N.2       1 <0>        -0.2473
      4 N2         -0.3865   -2.5855   -0.6621 N.am      1 <0>        -0.4357
      5 C3          0.1293   -2.5755    0.5838 C.2       1 <0>         0.5319
      6 O1          0.7333   -3.4783    1.1347 O.2       1 <0>        -0.4462
      7 C4         -0.1809   -1.2476    1.1400 C.2       1 <0>        -0.2521
      8 C5          0.1487   -0.7596    2.3922 C.2       1 <0>         0.1114
      9 C6         -0.0560    0.6547    2.7028 C.ar      1 <0>        -0.1107
     10 C7         -0.7218    1.0278    3.8805 C.ar      1 <0>        -0.0702
     11 C8         -0.9124    2.3594    4.1692 C.ar      1 <0>        -0.1805
     12 C9         -0.4475    3.3374    3.2977 C.ar      1 <0>         0.1308
     13 C10         0.2158    2.9756    2.1240 C.ar      1 <0>         0.0948
     14 C11         0.4176    1.6438    1.8273 C.ar      1 <0>        -0.1364
     15 O2          0.6683    3.9371    1.2754 O.3       1 <0>        -0.3007
     16 C12         1.2450    3.4966    0.0443 C.3       1 <0>         0.0200
     17 O3         -0.6396    4.6491    3.5889 O.3       1 <0>        -0.2995
     18 C13        -1.3261    4.9498    4.8055 C.3       1 <0>         0.0223
     19 C14        -0.3144   -3.6233   -1.5190 C.2       1 <0>         0.5893
     20 O4          0.1580   -4.6818   -1.1531 O.2       1 <0>        -0.4501
     21 C15        -0.8084   -3.4748   -2.8996 C.ar      1 <0>        -0.1794
     22 C16        -1.2181   -2.2235   -3.3690 C.ar      1 <0>        -0.0589
     23 C17        -1.6784   -2.0915   -4.6607 C.ar      1 <0>        -0.1476
     24 C18        -1.7379   -3.1941   -5.4979 C.ar      1 <0>        -0.0663
     25 C19        -1.3365   -4.4359   -5.0475 C.ar      1 <0>        -0.1642
     26 C20        -0.8649   -4.5867   -3.7519 C.ar      1 <0>         0.1742
     27 O5         -0.4649   -5.8051   -3.3099 O.3       1 <0>        -0.4801
     28 H1         -0.7236    1.5493   -0.2245 H         1 <0>         0.0924
     29 H2         -2.3659    0.9132   -0.4826 H         1 <0>         0.0916
     30 H3         -1.7286    1.0879    1.1702 H         1 <0>         0.0963
     31 H4          0.5571   -1.4231    3.1400 H         1 <0>         0.1567
     32 H5         -1.0845    0.2703    4.5595 H         1 <0>         0.1388
     33 H6         -1.4252    2.6457    5.0756 H         1 <0>         0.1447
     34 H7          0.9350    1.3630    0.9218 H         1 <0>         0.1430
     35 H8          2.0488    2.7903    0.2518 H         1 <0>         0.0569
     36 H9          0.4806    3.0095   -0.5612 H         1 <0>         0.0579
     37 H10         1.6453    4.3540   -0.4967 H         1 <0>         0.1061
     38 H11        -2.3216    4.5066    4.7801 H         1 <0>         0.0595
     39 H12        -0.7680    4.5415    5.6481 H         1 <0>         0.0592
     40 H13        -1.4124    6.0307    4.9165 H         1 <0>         0.1051
     41 H14        -1.1741   -1.3615   -2.7198 H         1 <0>         0.1711
     42 H15        -1.9946   -1.1243   -5.0224 H         1 <0>         0.1331
     43 H16        -2.1008   -3.0813   -6.5089 H         1 <0>         0.1331
     44 H17        -1.3860   -5.2903   -5.7063 H         1 <0>         0.1379
     45 H18        -1.1709   -6.3281   -2.9059 H         1 <0>         0.3966
@<TRIPOS>BOND
     1    1    2 1
     2    1   28 1
     3    1   29 1
     4    1   30 1
     5    2    7 1
     6    2    3 2
     7    3    4 1
     8    4    5 am
     9    4   19 am
    10    5    6 2
    11    5    7 1
    12    7    8 2
    13    8    9 1
    14    8   31 1
    15    9   14 ar
    16    9   10 ar
    17   10   11 ar
    18   10   32 1
    19   11   12 ar
    20   11   33 1
    21   12   13 ar
    22   12   17 1
    23   13   14 ar
    24   13   15 1
    25   14   34 1
    26   15   16 1
    27   16   35 1
    28   16   36 1
    29   16   37 1
    30   17   18 1
    31   18   38 1
    32   18   39 1
    33   18   40 1
    34   19   20 2
    35   19   21 1
    36   21   26 ar
    37   21   22 ar
    38   22   23 ar
    39   22   41 1
    40   23   24 ar
    41   23   42 1
    42   24   25 ar
    43   24   43 1
    44   25   26 ar
    45   25   44 1
    46   26   27 1
    47   27   45 1
@<TRIPOS>MOLECULE
CHEMBL212213
   40    43     0     0     0
SMALL
USER_CHARGES

@<TRIPOS>ATOM
      1 C1         -0.0173    1.4248    0.0099 C.3       1 <0>         0.0283
      2 O1          0.0021   -0.0041    0.0020 O.3       1 <0>        -0.3252
      3 C2          0.6259   -0.6185    1.0416 C.ar      1 <0>         0.1241
      4 C3          2.0040   -0.9147    0.9629 C.ar      1 <0>        -0.0577
      5 C4          2.7531   -0.5844   -0.1799 C.ar      1 <0>        -0.0948
      6 C5          4.0850   -0.8984   -0.1929 C.ar      1 <0>         0.0691
      7 C6          4.6604   -1.5295    0.9111 C.ar      1 <0>         0.1133
      8 N1          3.9559   -1.8348    1.9728 N.ar      1 <0>        -0.4191
      9 C7          2.6512   -1.5543    2.0473 C.ar      1 <0>         0.0910
     10 C8          1.9052   -1.8884    3.1971 C.ar      1 <0>         0.2310
     11 C9          0.5475   -1.5851    3.2481 C.ar      1 <0>        -0.1693
     12 C10        -0.0749   -0.9425    2.1587 C.ar      1 <0>        -0.0824
     13 C11        -1.5224   -0.7608    2.5476 C.3       1 <0>         0.1494
     14 N2         -1.6591   -1.3249    3.8946 N.am      1 <0>        -0.6101
     15 C12        -0.4691   -1.8066    4.2900 C.2       1 <0>         0.5693
     16 O2         -0.2576   -2.3368    5.3638 O.2       1 <0>        -0.5034
     17 C13        -2.8969   -1.3685    4.6770 C.3       1 <0>         0.1790
     18 C14        -3.6321   -2.6507    4.3830 C.ar      1 <0>        -0.1313
     19 C15        -4.5494   -2.6997    3.3498 C.ar      1 <0>        -0.0738
     20 C16        -5.2238   -3.8751    3.0790 C.ar      1 <0>        -0.1573
     21 C17        -4.9805   -5.0040    3.8429 C.ar      1 <0>         0.1071
     22 C18        -4.0615   -4.9538    4.8774 C.ar      1 <0>        -0.1551
     23 C19        -3.3845   -3.7787    5.1430 C.ar      1 <0>        -0.0639
     24 F1         -5.6395   -6.1536    3.5794 F         1 <0>        -0.1376
     25 O3          2.5069   -2.5017    4.2461 O.3       1 <0>        -0.4626
     26 F2          4.8409   -0.5987   -1.2718 F         1 <0>        -0.1197
     27 H1          1.0053    1.8021    0.0021 H         1 <0>         0.0502
     28 H2         -0.5445    1.7859   -0.8732 H         1 <0>         0.1035
     29 H3         -0.5275    1.7763    0.9067 H         1 <0>         0.0519
     30 H4          2.2899   -0.0964   -1.0247 H         1 <0>         0.1615
     31 H5          5.7125   -1.7725    0.8895 H         1 <0>         0.1812
     32 H6         -1.7774    0.2990    2.5575 H         1 <0>         0.1001
     33 H7         -2.1676   -1.2953    1.8503 H         1 <0>         0.1026
     34 H8         -2.6571   -1.3225    5.7393 H         1 <0>         0.1008
     35 H9         -3.5260   -0.5195    4.4094 H         1 <0>         0.0981
     36 H10        -4.7392   -1.8189    2.7544 H         1 <0>         0.1333
     37 H11        -5.9406   -3.9131    2.2721 H         1 <0>         0.1376
     38 H12        -3.8712   -5.8336    5.4741 H         1 <0>         0.1379
     39 H13        -2.6644   -3.7405    5.9470 H         1 <0>         0.1381
     40 H14         2.8710   -1.8917    4.9023 H         1 <0>         0.4044
@<TRIPOS>BOND
     1    1    2 1
     2    1   27 1
     3    1   28 1
     4    1   29 1
     5    2    3 1
     6    3   12 ar
     7    3    4 ar
     8    4    9 ar
     9    4    5 ar
    10    5    6 ar
    11    5   30 1
    12    6    7 ar
    13    6   26 1
    14    7    8 ar
    15    7   31 1
    16    8    9 ar
    17    9   10 ar
    18   10   11 ar
    19   10   25 1
    20   11   15 1
    21   11   12 ar
    22   12   13 1
    23   13   14 1
    24   13   32 1
    25   13   33 1
    26   14   15 am
    27   14   17 1
    28   15   16 2
    29   17   18 1
    30   17   34 1
    31   17   35 1
    32   18   23 ar
    33   18   19 ar
    34   19   20 ar
    35   19   36 1
    36   20   21 ar
    37   20   37 1
    38   21   22 ar
    39   21   24 1
    40   22   23 ar
    41   22   38 1
    42   23   39 1
    43   25   40 1
@<TRIPOS>MOLECULE
CHEMBL212213__1
   39    42     0     0     0
SMALL
USER_CHARGES

@<TRIPOS>ATOM
      1 C1         -0.0173    1.4248    0.0099 C.3       1 <0>         0.0248
      2 O1          0.0021   -0.0041    0.0020 O.3       1 <0>        -0.3205
      3 C2         -1.2004   -0.6376    0.0101 C.ar      1 <0>        -0.0474
      4 C3         -1.8163   -0.9680    1.2368 C.ar      1 <0>        -0.0047
      5 C4         -1.2061   -0.6526    2.4632 C.ar      1 <0>        -0.1383
      6 C5         -1.8555   -0.9999    3.6167 C.ar      1 <0>         0.0631
      7 C6         -3.0893   -1.6491    3.5503 C.ar      1 <0>         0.0302
      8 N1         -3.6520   -1.9404    2.4034 N.ar      1 <0>        -0.3847
      9 C7         -3.0689   -1.6274    1.2421 C.ar      1 <0>         0.0459
     10 C8         -3.6867   -1.9467    0.0147 C.ar      1 <0>         0.3642
     11 C9         -3.0571   -1.6096   -1.1802 C.ar      1 <0>        -0.3507
     12 C10        -1.8126   -0.9478   -1.1616 C.ar      1 <0>        -0.0015
     13 C11        -1.4289   -0.7311   -2.6057 C.3       1 <0>         0.1570
     14 N2         -2.5184   -1.2963   -3.4088 N.am      1 <0>        -0.6314
     15 C12        -3.4480   -1.8092   -2.5857 C.2       1 <0>         0.5820
     16 O2         -4.4754   -2.3483   -2.9501 O.2       1 <0>        -0.5340
     17 C13        -2.5767   -1.3116   -4.8725 C.3       1 <0>         0.1807
     18 C14        -1.9347   -2.5740   -5.3877 C.ar      1 <0>        -0.1161
     19 C15        -0.5808   -2.5963   -5.6664 C.ar      1 <0>        -0.0770
     20 C16         0.0090   -3.7535   -6.1384 C.ar      1 <0>        -0.1589
     21 C17        -0.7565   -4.8908   -6.3322 C.ar      1 <0>         0.0955
     22 C18        -2.1124   -4.8672   -6.0528 C.ar      1 <0>        -0.1552
     23 C19        -2.6991   -3.7104   -5.5758 C.ar      1 <0>        -0.0636
     24 F1         -0.1810   -6.0225   -6.7940 F         1 <0>        -0.1436
     25 O3         -4.8863   -2.5786   -0.0010 O.3       1 <0>        -0.6073
     26 F2         -1.3035   -0.7155    4.8166 F         1 <0>        -0.1412
     27 H1          1.0053    1.8021    0.0021 H         1 <0>         0.0807
     28 H2         -0.5445    1.7859   -0.8732 H         1 <0>         0.0369
     29 H3         -0.5275    1.7763    0.9067 H         1 <0>         0.0366
     30 H4         -0.2506   -0.1502    2.4943 H         1 <0>         0.1418
     31 H5         -3.5926   -1.9184    4.4672 H         1 <0>         0.1579
     32 H6         -1.3266    0.3346   -2.8103 H         1 <0>         0.0802
     33 H7         -0.4943   -1.2469   -2.8264 H         1 <0>         0.0836
     34 H8         -3.6172   -1.2754   -5.1951 H         1 <0>         0.0916
     35 H9         -2.0438   -0.4461   -5.2664 H         1 <0>         0.0856
     36 H10         0.0160   -1.7090   -5.5155 H         1 <0>         0.1315
     37 H11         1.0667   -3.7706   -6.3564 H         1 <0>         0.1331
     38 H12        -2.7106   -5.7537   -6.2039 H         1 <0>         0.1342
     39 H13        -3.7558   -3.6931   -5.3536 H         1 <0>         0.1389
@<TRIPOS>BOND
     1    1    2 1
     2    1   27 1
     3    1   28 1
     4    1   29 1
     5    2    3 1
     6    3   12 ar
     7    3    4 ar
     8    4    9 ar
     9    4    5 ar
    10    5    6 ar
    11    5   30 1
    12    6    7 ar
    13    6   26 1
    14    7    8 ar
    15    7   31 1
    16    8    9 ar
    17    9   10 ar
    18   10   11 ar
    19   10   25 1
    20   11   15 1
    21   11   12 ar
    22   12   13 1
    23   13   14 1
    24   13   32 1
    25   13   33 1
    26   14   15 am
    27   14   17 1
    28   15   16 2
    29   17   18 1
    30   17   34 1
    31   17   35 1
    32   18   23 ar
    33   18   19 ar
    34   19   20 ar
    35   19   36 1
    36   20   21 ar
    37   20   37 1
    38   21   22 ar
    39   21   24 1
    40   22   23 ar
    41   22   38 1
    42   23   39 1
@<TRIPOS>MOLECULE
CHEMBL421353
   32    33     0     0     0
SMALL
USER_CHARGES

@<TRIPOS>ATOM
      1 C1         -0.6100    1.0184    0.1069 C.2       1 <0>        -0.2143
      2 C2          0.5928    1.7029   -0.0760 C.2       1 <0>        -0.1158
      3 C3          1.6086    0.7683    0.0289 C.2       1 <0>        -0.0810
      4 N1          1.0199   -0.4548    0.2707 N.pl3     1 <0>        -0.4036
      5 C4         -0.3179   -0.2896    0.3153 C.2       1 <0>         0.0191
      6 C5          1.7300   -1.7236    0.4496 C.3       1 <0>         0.1367
      7 C6          2.0907   -1.8969    1.9025 C.ar      1 <0>        -0.1243
      8 C7          3.3496   -1.5405    2.3489 C.ar      1 <0>        -0.0602
      9 C8          3.6814   -1.6986    3.6812 C.ar      1 <0>        -0.1548
     10 C9          2.7523   -2.2141    4.5689 C.ar      1 <0>         0.1062
     11 C10         1.4917   -2.5707    4.1207 C.ar      1 <0>        -0.1612
     12 C11         1.1605   -2.4068    2.7890 C.ar      1 <0>        -0.0729
     13 F1          3.0756   -2.3694    5.8714 F         1 <0>        -0.1397
     14 C12         2.9942    1.0212   -0.0903 C.2       1 <0>         0.4112
     15 C13         3.4940    2.4379   -0.2099 C.3       1 <0>        -0.2015
     16 C14         4.9967    2.4325   -0.3231 C.2       1 <0>         0.2926
     17 O1          5.5997    1.3862   -0.3082 O.2       1 <0>        -0.4228
     18 C15         5.7403    3.7212   -0.4537 C.2       1 <0>         0.4687
     19 O2          6.9573    3.7169   -0.5454 O.co2     1 <0>        -0.6533
     20 O3          5.1310    4.7785   -0.4688 O.co2     1 <0>        -0.6682
     21 O4          3.7819    0.0969   -0.0965 O.2       1 <0>        -0.4437
     22 H1         -1.5980    1.4541    0.0901 H         1 <0>         0.1412
     23 H2          0.7088    2.7600   -0.2641 H         1 <0>         0.1511
     24 H3         -1.0406   -1.0731    0.4893 H         1 <0>         0.1638
     25 H4          1.0888   -2.5465    0.1338 H         1 <0>         0.0984
     26 H5          2.6387   -1.7195   -0.1523 H         1 <0>         0.1204
     27 H6          4.0743   -1.1388    1.6562 H         1 <0>         0.1522
     28 H7          4.6650   -1.4204    4.0296 H         1 <0>         0.1390
     29 H8          0.7663   -2.9732    4.8122 H         1 <0>         0.1356
     30 H9          0.1758   -2.6808    2.4400 H         1 <0>         0.1303
     31 H10         3.0643    2.9010   -1.0982 H         1 <0>         0.1257
     32 H11         3.1982    3.0033    0.6738 H         1 <0>         0.1252
@<TRIPOS>BOND
     1    1    5 2
     2    1    2 1
     3    1   22 1
     4    2    3 2
     5    2   23 1
     6    3    4 1
     7    3   14 1
     8    4    5 1
     9    4    6 1
    10    5   24 1
    11    6    7 1
    12    6   25 1
    13    6   26 1
    14    7   12 ar
    15    7    8 ar
    16    8    9 ar
    17    8   27 1
    18    9   10 ar
    19    9   28 1
    20   10   11 ar
    21   10   13 1
    22   11   12 ar
    23   11   29 1
    24   12   30 1
    25   14   15 1
    26   14   21 2
    27   15   16 1
    28   15   31 1
    29   15   32 1
    30   16   17 2
    31   16   18 1
    32   18   19 2
    33   18   20 1
@<TRIPOS>MOLECULE
CHEMBL437708
   35    37     0     0     0
SMALL
USER_CHARGES

@<TRIPOS>ATOM
      1 C1         -0.0167    1.3781    0.0096 C.ar      1 <0>        -0.1159
      2 C2          1.1709    2.0855    0.0021 C.ar      1 <0>        -0.1229
      3 C3          2.3773    1.4107   -0.0130 C.ar      1 <0>        -0.0993
      4 C4          2.3960    0.0285   -0.0201 C.ar      1 <0>        -0.1024
      5 C5          1.2084   -0.6789   -0.0117 C.ar      1 <0>        -0.0991
      6 C6          0.0021   -0.0041    0.0020 C.ar      1 <0>        -0.1226
      7 C7          3.7112   -0.7071   -0.0376 C.3       1 <0>         0.1607
      8 N1          4.1518   -0.9524    1.3379 N.am      1 <0>        -0.7155
      9 C8          5.3108   -1.6005    1.5688 C.2       1 <0>         0.5794
     10 O1          5.9902   -1.9813    0.6360 O.2       1 <0>        -0.5237
     11 C9          5.7562   -1.8484    2.9593 C.ar      1 <0>         0.0884
     12 C10         6.9589   -2.5142    3.2109 C.ar      1 <0>        -0.0252
     13 C11         7.3365   -2.7240    4.5470 C.ar      1 <0>         0.4247
     14 N2          6.5469   -2.2876    5.5143 N.ar      1 <0>        -0.5721
     15 C12         5.4088   -1.6575    5.2360 C.ar      1 <0>         0.4038
     16 N3          5.0188   -1.4351    3.9900 N.ar      1 <0>        -0.5649
     17 C13         4.5590   -1.1878    6.3477 C.2       1 <0>        -0.0641
     18 C14         4.7656   -1.2966    7.6981 C.2       1 <0>        -0.1312
     19 C15         3.8235   -0.7763    8.5556 C.2       1 <0>        -0.1532
     20 C16         2.7206   -0.1725    8.0402 C.2       1 <0>        -0.1988
     21 S1          2.9982   -0.3233    6.2832 S.3       1 <0>         0.0844
     22 O2          8.4940   -3.3653    4.8415 O.3       1 <0>        -0.6694
     23 O3          7.7416   -2.9473    2.1900 O.3       1 <0>        -0.4614
     24 H1         -0.9591    1.9053    0.0259 H         1 <0>         0.1206
     25 H2          1.1563    3.1654    0.0076 H         1 <0>         0.1222
     26 H3          3.3051    1.9634   -0.0196 H         1 <0>         0.1239
     27 H4          1.2231   -1.7588   -0.0176 H         1 <0>         0.1242
     28 H5         -0.9258   -0.5567    0.0082 H         1 <0>         0.1223
     29 H6          3.5884   -1.6586   -0.5549 H         1 <0>         0.0743
     30 H7          4.4573   -0.1052   -0.5563 H         1 <0>         0.0741
     31 H8          3.6095   -0.6484    2.0824 H         1 <0>         0.4118
     32 H9          5.6508   -1.7817    8.0820 H         1 <0>         0.1442
     33 H10         3.9588   -0.8473    9.6247 H         1 <0>         0.1311
     34 H11         1.8913    0.2843    8.5599 H         1 <0>         0.1820
     35 H12         8.3963   -2.2999    1.8944 H         1 <0>         0.3696
@<TRIPOS>BOND
     1    1    6 ar
     2    1    2 ar
     3    1   24 1
     4    2    3 ar
     5    2   25 1
     6    3    4 ar
     7    3   26 1
     8    4    5 ar
     9    4    7 1
    10    5    6 ar
    11    5   27 1
    12    6   28 1
    13    7    8 1
    14    7   29 1
    15    7   30 1
    16    8    9 am
    17    8   31 1
    18    9   10 2
    19    9   11 1
    20   11   16 ar
    21   11   12 ar
    22   12   23 1
    23   12   13 ar
    24   13   22 1
    25   13   14 ar
    26   14   15 ar
    27   15   17 1
    28   15   16 ar
    29   17   21 1
    30   17   18 2
    31   18   19 1
    32   18   32 1
    33   19   20 2
    34   19   33 1
    35   20   21 1
    36   20   34 1
    37   23   35 1
@<TRIPOS>MOLECULE
CHEMBL437708__1
   36    38     0     0     0
SMALL
USER_CHARGES

@<TRIPOS>ATOM
      1 C1          8.4938   -3.3818   -3.5673 C.ar      1 <0>        -0.1082
      2 C2          7.4472   -4.1684   -3.1238 C.ar      1 <0>        -0.1208
      3 C3          6.5182   -3.6495   -2.2415 C.ar      1 <0>        -0.0997
      4 C4          6.6360   -2.3440   -1.8023 C.ar      1 <0>        -0.1164
      5 C5          7.6832   -1.5577   -2.2451 C.ar      1 <0>        -0.0995
      6 C6          8.6114   -2.0762   -3.1285 C.ar      1 <0>        -0.1208
      7 C7          5.6226   -1.7780   -0.8413 C.3       1 <0>         0.1636
      8 N1          6.0645   -2.0220    0.5341 N.am      1 <0>        -0.7262
      9 C8          5.3108   -1.6005    1.5688 C.2       1 <0>         0.5692
     10 O1          4.3122   -0.9378    1.3634 O.2       1 <0>        -0.4848
     11 C9          5.6973   -1.9430    2.9505 C.2       1 <0>         0.0077
     12 C10         4.8865   -1.6138    4.0010 C.2       1 <0>         0.0751
     13 C11         5.3240   -1.9812    5.3596 C.2       1 <0>         0.4986
     14 N2          6.4885   -2.6184    5.5168 N.2       1 <0>        -0.5629
     15 C12         7.2454   -2.9198    4.4761 C.2       1 <0>         0.5347
     16 N3          6.8804   -2.6062    3.2041 N.pl3     1 <0>        -0.5917
     17 C13         8.5143   -3.6192    4.6992 C.2       1 <0>        -0.2275
     18 C14         9.0797   -4.0450    5.8917 C.2       1 <0>        -0.0350
     19 C15        10.2937   -4.6813    5.7830 C.2       1 <0>        -0.1861
     20 C16        10.8432   -4.8466    4.5548 C.2       1 <0>        -0.2004
     21 S1          9.7290   -4.1508    3.5077 S.3       1 <0>         0.2126
     22 O2          4.6326   -1.7072    6.3278 O.2       1 <0>        -0.4860
     23 O3          3.7125   -0.9666    3.7985 O.3       1 <0>        -0.4179
     24 H1          9.2222   -3.7887   -4.2531 H         1 <0>         0.1249
     25 H2          7.3551   -5.1883   -3.4669 H         1 <0>         0.1258
     26 H3          5.7000   -4.2638   -1.8956 H         1 <0>         0.1250
     27 H4          7.7750   -0.5377   -1.9023 H         1 <0>         0.1252
     28 H5          9.4293   -1.4618   -3.4747 H         1 <0>         0.1259
     29 H6          5.5249   -0.7050   -1.0065 H         1 <0>         0.0838
     30 H7          4.6586   -2.2600   -1.0041 H         1 <0>         0.0827
     31 H8          6.8995   -2.4869    0.6999 H         1 <0>         0.3940
     32 H9          8.5974   -3.8867    6.8450 H         1 <0>         0.1613
     33 H10        10.8025   -5.0441    6.6638 H         1 <0>         0.1471
     34 H11        11.7810   -5.3209    4.3061 H         1 <0>         0.1961
     35 H12         7.4613   -2.8482    2.4659 H         1 <0>         0.4181
     36 H13         3.2193   -0.7834    4.6098 H         1 <0>         0.4127
@<TRIPOS>BOND
     1    1    6 ar
     2    1    2 ar
     3    1   24 1
     4    2    3 ar
     5    2   25 1
     6    3    4 ar
     7    3   26 1
     8    4    5 ar
     9    4    7 1
    10    5    6 ar
    11    5   27 1
    12    6   28 1
    13    7    8 1
    14    7   29 1
    15    7   30 1
    16    8    9 am
    17    8   31 1
    18    9   10 2
    19    9   11 1
    20   11   16 1
    21   11   12 2
    22   12   23 1
    23   12   13 1
    24   13   22 2
    25   13   14 1
    26   14   15 2
    27   15   17 1
    28   15   16 1
    29   16   35 1
    30   17   21 1
    31   17   18 2
    32   18   19 1
    33   18   32 1
    34   19   20 2
    35   19   33 1
    36   20   21 1
    37   20   34 1
    38   23   36 1
@<TRIPOS>MOLECULE
CHEMBL437708__2
   36    38     0     0     0
SMALL
USER_CHARGES

@<TRIPOS>ATOM
      1 C1         -0.0167    1.3781    0.0096 C.ar      1 <0>        -0.1109
      2 C2          1.1709    2.0855    0.0021 C.ar      1 <0>        -0.1217
      3 C3          2.3773    1.4107   -0.0130 C.ar      1 <0>        -0.0991
      4 C4          2.3960    0.0285   -0.0201 C.ar      1 <0>        -0.1105
      5 C5          1.2084   -0.6789   -0.0117 C.ar      1 <0>        -0.0991
      6 C6          0.0021   -0.0041    0.0020 C.ar      1 <0>        -0.1217
      7 C7          3.7112   -0.7071   -0.0376 C.3       1 <0>         0.1612
      8 N1          4.1518   -0.9524    1.3379 N.am      1 <0>        -0.7093
      9 C8          5.3108   -1.6005    1.5688 C.2       1 <0>         0.5771
     10 O1          5.9902   -1.9814    0.6360 O.2       1 <0>        -0.5040
     11 C9          5.7562   -1.8484    2.9593 C.2       1 <0>         0.0600
     12 C10         6.9513   -2.5101    3.1996 C.2       1 <0>         0.0571
     13 C11         7.3472   -2.7300    4.5465 C.2       1 <0>         0.5036
     14 N2          6.5450   -2.2865    5.5375 N.am      1 <0>        -0.6158
     15 C12         5.3769   -1.6403    5.2365 C.2       1 <0>         0.4528
     16 N3          5.0082   -1.4291    3.9903 N.2       1 <0>        -0.4684
     17 C13         4.5184   -1.1663    6.3279 C.2       1 <0>        -0.2052
     18 C14         3.3045   -0.5014    6.2586 C.2       1 <0>        -0.0553
     19 C15         2.7286   -0.1819    7.4668 C.2       1 <0>        -0.1823
     20 C16         3.3657   -0.5271    8.6114 C.2       1 <0>        -0.2116
     21 S1          4.7612   -1.3026    8.0887 S.3       1 <0>         0.2151
     22 O2          8.3898   -3.3077    4.8018 O.2       1 <0>        -0.5173
     23 O3          7.7256   -2.9385    2.1706 O.3       1 <0>        -0.4095
     24 H1         -0.9591    1.9053    0.0259 H         1 <0>         0.1234
     25 H2          1.1563    3.1654    0.0076 H         1 <0>         0.1244
     26 H3          3.3051    1.9634   -0.0196 H         1 <0>         0.1243
     27 H4          1.2231   -1.7588   -0.0176 H         1 <0>         0.1243
     28 H5         -0.9258   -0.5567    0.0082 H         1 <0>         0.1244
     29 H6          3.5884   -1.6586   -0.5549 H         1 <0>         0.0795
     30 H7          4.4573   -0.1052   -0.5563 H         1 <0>         0.0795
     31 H8          3.6095   -0.6484    2.0824 H         1 <0>         0.4110
     32 H9          2.8403   -0.2498    5.3164 H         1 <0>         0.1566
     33 H10         1.7822    0.3372    7.5020 H         1 <0>         0.1440
     34 H11         3.0469   -0.3488    9.6278 H         1 <0>         0.1939
     35 H12         6.7966   -2.4263    6.4638 H         1 <0>         0.4230
     36 H13         8.5359   -3.3872    2.4485 H         1 <0>         0.4066
@<TRIPOS>BOND
     1    1    6 ar
     2    1    2 ar
     3    1   24 1
     4    2    3 ar
     5    2   25 1
     6    3    4 ar
     7    3   26 1
     8    4    5 ar
     9    4    7 1
    10    5    6 ar
    11    5   27 1
    12    6   28 1
    13    7    8 1
    14    7   29 1
    15    7   30 1
    16    8    9 am
    17    8   31 1
    18    9   10 2
    19    9   11 1
    20   11   16 1
    21   11   12 2
    22   12   23 1
    23   12   13 1
    24   13   22 2
    25   13   14 am
    26   14   15 1
    27   14   35 1
    28   15   17 1
    29   15   16 2
    30   17   21 1
    31   17   18 2
    32   18   19 1
    33   18   32 1
    34   19   20 2
    35   19   33 1
    36   20   21 1
    37   20   34 1
    38   23   36 1
@<TRIPOS>MOLECULE
CHEMBL407451
   47    49     0     0     0
SMALL
USER_CHARGES

@<TRIPOS>ATOM
      1 C1          0.2432    1.0459    2.9614 C.3       1 <0>        -0.0494
      2 N1         -0.1360    0.6265    1.6056 N.4       1 <0>        -0.3694
      3 C2         -1.5064    0.1009    1.6229 C.3       1 <0>        -0.0058
      4 C3         -1.6019   -1.0523    2.6242 C.3       1 <0>        -0.1481
      5 C4         -0.6327   -2.1630    2.2091 C.3       1 <0>        -0.1356
      6 C5          0.7830   -1.5856    2.1221 C.3       1 <0>        -0.1275
      7 C6          0.7900   -0.4126    1.1395 C.3       1 <0>         0.1208
      8 C7          2.1816    0.1589    1.0504 C.ar      1 <0>         0.2911
      9 N2          3.2094   -0.6468    1.1919 N.ar      1 <0>        -0.5514
     10 C8          4.4592   -0.1838    1.1203 C.ar      1 <0>         0.0845
     11 C9          4.6611    1.1792    0.8912 C.ar      1 <0>         0.0081
     12 C10         3.5309    1.9991    0.7468 C.ar      1 <0>         0.4287
     13 N3          2.3278    1.4520    0.8273 N.ar      1 <0>        -0.6166
     14 O1          3.6691    3.3291    0.5233 O.3       1 <0>        -0.6454
     15 O2          5.9134    1.6959    0.8111 O.3       1 <0>        -0.4595
     16 C11         5.6119   -1.0992    1.2815 C.2       1 <0>         0.5736
     17 O3          6.7455   -0.6664    1.2145 O.2       1 <0>        -0.5130
     18 N4          5.4038   -2.4123    1.5026 N.am      1 <0>        -0.7136
     19 C12         6.5442   -3.3179    1.6621 C.3       1 <0>         0.1606
     20 C13         6.0434   -4.7198    1.8966 C.ar      1 <0>        -0.1171
     21 C14         5.8020   -5.1606    3.1845 C.ar      1 <0>        -0.0698
     22 C15         5.3423   -6.4458    3.4008 C.ar      1 <0>        -0.1555
     23 C16         5.1236   -7.2921    2.3270 C.ar      1 <0>         0.1057
     24 C17         5.3657   -6.8495    1.0376 C.ar      1 <0>        -0.1553
     25 C18         5.8204   -5.5622    0.8234 C.ar      1 <0>        -0.0695
     26 F1          4.6746   -8.5488    2.5372 F         1 <0>        -0.1381
     27 H1          1.2515    1.4597    2.9450 H         1 <0>         0.1248
     28 H2         -0.4550    1.8041    3.3158 H         1 <0>         0.1182
     29 H3          0.2146    0.1850    3.6294 H         1 <0>         0.1189
     30 H4         -2.1953    0.8934    1.9154 H         1 <0>         0.1281
     31 H5         -1.7696   -0.2593    0.6284 H         1 <0>         0.1262
     32 H6         -1.3391   -0.6930    3.6192 H         1 <0>         0.0876
     33 H7         -2.6197   -1.4422    2.6343 H         1 <0>         0.1060
     34 H8         -0.6555   -2.9622    2.9499 H         1 <0>         0.0914
     35 H9         -0.9258   -2.5577    1.2362 H         1 <0>         0.0807
     36 H10         1.0952   -1.2374    3.1067 H         1 <0>         0.0867
     37 H11         1.4698   -2.3567    1.7734 H         1 <0>         0.1205
     38 H12         0.4780   -0.7619    0.1552 H         1 <0>         0.1433
     39 H13         6.2814    1.6985   -0.0832 H         1 <0>         0.3823
     40 H14         4.4990   -2.7577    1.5562 H         1 <0>         0.4088
     41 H15         7.1544   -3.2964    0.7592 H         1 <0>         0.0794
     42 H16         7.1448   -2.9994    2.5141 H         1 <0>         0.0796
     43 H17         5.9731   -4.5004    4.0220 H         1 <0>         0.1354
     44 H18         5.1541   -6.7901    4.4070 H         1 <0>         0.1376
     45 H19         5.1957   -7.5089    0.1992 H         1 <0>         0.1378
     46 H20         6.0050   -5.2152   -0.1826 H         1 <0>         0.1356
     47 H21        -0.0901    1.4199    0.9840 H         1 <0>         0.4382
@<TRIPOS>BOND
     1    1    2 1
     2    1   27 1
     3    1   28 1
     4    1   29 1
     5    2    7 1
     6    2    3 1
     7    2   47 1
     8    3    4 1
     9    3   30 1
    10    3   31 1
    11    4    5 1
    12    4   32 1
    13    4   33 1
    14    5    6 1
    15    5   34 1
    16    5   35 1
    17    6    7 1
    18    6   36 1
    19    6   37 1
    20    7   38 1
    21    7    8 1
    22    8    9 ar
    23    8   13 ar
    24    9   10 ar
    25   10   16 1
    26   10   11 ar
    27   11   15 1
    28   11   12 ar
    29   12   14 1
    30   12   13 ar
    31   15   39 1
    32   16   17 2
    33   16   18 am
    34   18   19 1
    35   18   40 1
    36   19   20 1
    37   19   41 1
    38   19   42 1
    39   20   25 ar
    40   20   21 ar
    41   21   22 ar
    42   21   43 1
    43   22   23 ar
    44   22   44 1
    45   23   24 ar
    46   23   26 1
    47   24   25 ar
    48   24   45 1
    49   25   46 1
@<TRIPOS>MOLECULE
CHEMBL407451__1
   47    49     0     0     0
SMALL
USER_CHARGES

@<TRIPOS>ATOM
      1 C1         -0.0178    1.4648    0.0101 C.3       1 <0>        -0.0411
      2 N1          0.0021   -0.0041    0.0020 N.4       1 <0>        -0.3748
      3 C2         -1.3756   -0.5106    0.0035 C.3       1 <0>        -0.0044
      4 C3         -1.3615   -2.0381   -0.0867 C.3       1 <0>        -0.1464
      5 C4         -0.6051   -2.6081    1.1167 C.3       1 <0>        -0.1331
      6 C5          0.8066   -2.0155    1.1472 C.3       1 <0>        -0.1334
      7 C6          0.7122   -0.4888    1.1916 C.3       1 <0>         0.1223
      8 C7          2.0995    0.0990    1.2220 C.ar      1 <0>         0.2874
      9 N2          2.5589    0.5849    2.3526 N.ar      1 <0>        -0.5548
     10 C8          3.7817    1.1149    2.4253 C.ar      1 <0>         0.0830
     11 C9          4.5723    1.1461    1.2742 C.ar      1 <0>         0.0092
     12 C10         4.0368    0.6146    0.0905 C.ar      1 <0>         0.4257
     13 N3          2.8154    0.1038    0.1126 N.ar      1 <0>        -0.6043
     14 O1          4.7606    0.6197   -1.0558 O.3       1 <0>        -0.6446
     15 O2          5.8217    1.6754    1.2994 O.3       1 <0>        -0.4597
     16 C11         4.2912    1.6608    3.7039 C.2       1 <0>         0.5733
     17 O3          5.4063    2.1410    3.7583 O.2       1 <0>        -0.5130
     18 N4          3.5184    1.6251    4.8075 N.am      1 <0>        -0.7139
     19 C12         4.0225    2.1652    6.0726 C.3       1 <0>         0.1607
     20 C13         2.9722    2.0045    7.1414 C.ar      1 <0>        -0.1172
     21 C14         2.0383    3.0027    7.3476 C.ar      1 <0>        -0.0700
     22 C15         1.0745    2.8563    8.3271 C.ar      1 <0>        -0.1557
     23 C16         1.0444    1.7092    9.1021 C.ar      1 <0>         0.1056
     24 C17         1.9803    0.7101    8.8946 C.ar      1 <0>        -0.1552
     25 C18         2.9400    0.8565    7.9109 C.ar      1 <0>        -0.0694
     26 F1          0.1029    1.5652   10.0602 F         1 <0>        -0.1381
     27 H1          1.0047    1.8421    0.0024 H         1 <0>         0.1206
     28 H2         -0.5450    1.8259   -0.8730 H         1 <0>         0.1201
     29 H3         -0.5280    1.8163    0.9069 H         1 <0>         0.1170
     30 H4         -1.8732   -0.2060    0.9241 H         1 <0>         0.1256
     31 H5         -1.9135   -0.1015   -0.8518 H         1 <0>         0.1282
     32 H6         -2.3852   -2.4123   -0.0837 H         1 <0>         0.1081
     33 H7         -0.8642   -2.3438   -1.0072 H         1 <0>         0.0885
     34 H8         -1.1305   -2.3457    2.0350 H         1 <0>         0.0803
     35 H9         -0.5433   -3.6927    1.0279 H         1 <0>         0.0922
     36 H10         1.3327   -2.3735    2.0321 H         1 <0>         0.1084
     37 H11         1.3489   -2.3207    0.2523 H         1 <0>         0.0951
     38 H12         0.1701   -0.1847    2.0870 H         1 <0>         0.1464
     39 H13         6.5154    1.0364    1.5129 H         1 <0>         0.3826
     40 H14         2.6284    1.2418    4.7641 H         1 <0>         0.4090
     41 H15         4.9235    1.6258    6.3646 H         1 <0>         0.0795
     42 H16         4.2561    3.2226    5.9488 H         1 <0>         0.0797
     43 H17         2.0622    3.8975    6.7433 H         1 <0>         0.1354
     44 H18         0.3452    3.6364    8.4883 H         1 <0>         0.1376
     45 H19         1.9580   -0.1849    9.4986 H         1 <0>         0.1380
     46 H20         3.6673    0.0754    7.7459 H         1 <0>         0.1357
     47 H21         0.4767   -0.3284   -0.8272 H         1 <0>         0.4337
@<TRIPOS>BOND
     1    1    2 1
     2    1   27 1
     3    1   28 1
     4    1   29 1
     5    2    7 1
     6    2    3 1
     7    2   47 1
     8    3    4 1
     9    3   30 1
    10    3   31 1
    11    4    5 1
    12    4   32 1
    13    4   33 1
    14    5    6 1
    15    5   34 1
    16    5   35 1
    17    6    7 1
    18    6   36 1
    19    6   37 1
    20    7   38 1
    21    7    8 1
    22    8    9 ar
    23    8   13 ar
    24    9   10 ar
    25   10   16 1
    26   10   11 ar
    27   11   15 1
    28   11   12 ar
    29   12   14 1
    30   12   13 ar
    31   15   39 1
    32   16   17 2
    33   16   18 am
    34   18   19 1
    35   18   40 1
    36   19   20 1
    37   19   41 1
    38   19   42 1
    39   20   25 ar
    40   20   21 ar
    41   21   22 ar
    42   21   43 1
    43   22   23 ar
    44   22   44 1
    45   23   24 ar
    46   23   26 1
    47   24   25 ar
    48   24   45 1
    49   25   46 1
@<TRIPOS>MOLECULE
CHEMBL217776
   50    52     0     0     0
SMALL
USER_CHARGES

@<TRIPOS>ATOM
      1 C1          0.8760   -0.9600    1.1204 C.3       1 <0>         0.0158
      2 N1          0.2621   -0.4164   -0.0983 N.3       1 <0>        -0.5122
      3 C2          0.8905   -0.9797   -1.3007 C.3       1 <0>         0.0193
      4 C3         -1.1886   -0.6474   -0.1051 C.3       1 <0>         0.1698
      5 C4         -1.7546   -0.2489   -1.4437 C.ar      1 <0>        -0.1087
      6 C5         -1.4123    0.9675   -2.0044 C.ar      1 <0>        -0.0803
      7 C6         -1.9314    1.3331   -3.2323 C.ar      1 <0>        -0.1191
      8 C7         -2.7924    0.4821   -3.8998 C.ar      1 <0>        -0.1052
      9 C8         -3.1339   -0.7346   -3.3395 C.ar      1 <0>        -0.1177
     10 C9         -2.6114   -1.1020   -2.1136 C.ar      1 <0>        -0.1140
     11 C10        -1.8337    0.1774    0.9787 C.2       1 <0>         0.4402
     12 N2         -3.1693    0.1694    1.0856 N.pl3     1 <0>        -0.5796
     13 C11        -3.8109    0.9039    2.0566 C.2       1 <0>         0.0043
     14 C12        -3.0584    1.6515    2.9219 C.2       1 <0>         0.0718
     15 C13        -1.5948    1.6236    2.7591 C.2       1 <0>         0.4907
     16 N3         -1.0688    0.8687    1.7814 N.2       1 <0>        -0.5407
     17 O1         -0.8741    2.2706    3.5013 O.2       1 <0>        -0.4844
     18 O2         -3.6410    2.3932    3.8960 O.3       1 <0>        -0.4199
     19 C14        -5.2832    0.8863    2.1627 C.2       1 <0>         0.5695
     20 O3         -5.8440    1.6141    2.9589 O.2       1 <0>        -0.4853
     21 N4         -6.0057    0.0635    1.3770 N.am      1 <0>        -0.7273
     22 C15        -7.4691    0.1269    1.3997 C.3       1 <0>         0.1649
     23 C16        -8.0310   -0.8885    0.4383 C.ar      1 <0>        -0.1268
     24 C17        -8.2613   -0.5387   -0.8791 C.ar      1 <0>        -0.0686
     25 C18        -8.7761   -1.4692   -1.7618 C.ar      1 <0>        -0.1546
     26 C19        -9.0611   -2.7522   -1.3262 C.ar      1 <0>         0.1112
     27 C20        -8.8300   -3.1014   -0.0065 C.ar      1 <0>        -0.1551
     28 C21        -8.3102   -2.1708    0.8731 C.ar      1 <0>        -0.0689
     29 F1         -9.5648   -3.6625   -2.1881 F         1 <0>        -0.1356
     30 H1          1.9507   -0.7790    1.0977 H         1 <0>         0.0742
     31 H2          0.4438   -0.4719    1.9939 H         1 <0>         0.0979
     32 H3          0.6893   -2.0326    1.1740 H         1 <0>         0.0206
     33 H4          0.7682   -2.0628   -1.3010 H         1 <0>         0.0280
     34 H5          0.4170   -0.5604   -2.1885 H         1 <0>         0.0752
     35 H6          1.9524   -0.7339   -1.3048 H         1 <0>         0.0770
     36 H7         -1.3892   -1.7037    0.0742 H         1 <0>         0.0864
     37 H8         -0.7396    1.6323   -1.4829 H         1 <0>         0.1350
     38 H9         -1.6646    2.2836   -3.6700 H         1 <0>         0.1270
     39 H10        -3.1985    0.7681   -4.8588 H         1 <0>         0.1254
     40 H11        -3.8068   -1.3993   -3.8609 H         1 <0>         0.1269
     41 H12        -2.8753   -2.0542   -1.6776 H         1 <0>         0.1249
     42 H13        -3.0137    2.8802    4.4478 H         1 <0>         0.4122
     43 H14        -5.5567   -0.5707    0.7964 H         1 <0>         0.3945
     44 H15        -7.8266   -0.0894    2.4065 H         1 <0>         0.0857
     45 H16        -7.7942    1.1248    1.1053 H         1 <0>         0.0846
     46 H17        -8.0393    0.4622   -1.2186 H         1 <0>         0.1362
     47 H18        -8.9563   -1.1956   -2.7909 H         1 <0>         0.1395
     48 H19        -9.0522   -4.1018    0.3345 H         1 <0>         0.1396
     49 H20        -8.1257   -2.4442    1.9015 H         1 <0>         0.1364
     50 H21        -3.6934   -0.3634    0.4673 H         1 <0>         0.4190
@<TRIPOS>BOND
     1    1    2 1
     2    1   30 1
     3    1   31 1
     4    1   32 1
     5    2    3 1
     6    2    4 1
     7    3   33 1
     8    3   34 1
     9    3   35 1
    10    4    5 1
    11    4   36 1
    12    4   11 1
    13    5   10 ar
    14    5    6 ar
    15    6    7 ar
    16    6   37 1
    17    7    8 ar
    18    7   38 1
    19    8    9 ar
    20    8   39 1
    21    9   10 ar
    22    9   40 1
    23   10   41 1
    24   11   12 1
    25   11   16 2
    26   12   13 1
    27   12   50 1
    28   13   19 1
    29   13   14 2
    30   14   18 1
    31   14   15 1
    32   15   17 2
    33   15   16 1
    34   18   42 1
    35   19   20 2
    36   19   21 am
    37   21   22 1
    38   21   43 1
    39   22   23 1
    40   22   44 1
    41   22   45 1
    42   23   28 ar
    43   23   24 ar
    44   24   25 ar
    45   24   46 1
    46   25   26 ar
    47   25   47 1
    48   26   27 ar
    49   26   29 1
    50   27   28 ar
    51   27   48 1
    52   28   49 1
@<TRIPOS>MOLECULE
CHEMBL217776__1
   49    51     0     0     0
SMALL
USER_CHARGES

@<TRIPOS>ATOM
      1 C1         -0.0178    1.4648    0.0101 C.3       1 <0>         0.0342
      2 N1          0.0021   -0.0041    0.0020 N.3       1 <0>        -0.5198
      3 C2          0.7062   -0.5275    1.1802 C.3       1 <0>         0.0243
      4 C3         -1.3597   -0.5486   -0.0825 C.3       1 <0>         0.2054
      5 C4         -1.2991   -2.0543   -0.0884 C.ar      1 <0>        -0.0717
      6 C5         -0.3075   -2.7034   -0.7999 C.ar      1 <0>        -0.0696
      7 C6         -0.2520   -4.0846   -0.8054 C.ar      1 <0>        -0.1315
      8 C7         -1.1877   -4.8168   -0.0988 C.ar      1 <0>        -0.1233
      9 C8         -2.1788   -4.1677    0.6135 C.ar      1 <0>        -0.1318
     10 C9         -2.2318   -2.7864    0.6224 C.ar      1 <0>        -0.1098
     11 C10        -2.0153   -0.0672   -1.3511 C.ar      1 <0>         0.3427
     12 N2         -3.2509    0.3756   -1.2991 N.ar      1 <0>        -0.5791
     13 C11        -3.8705    0.8114   -2.3980 C.ar      1 <0>         0.0841
     14 C12        -3.1822    0.7902   -3.6132 C.ar      1 <0>        -0.0342
     15 C13        -1.8639    0.3080   -3.6173 C.ar      1 <0>         0.4189
     16 N3         -1.3271   -0.0995   -2.4774 N.ar      1 <0>        -0.5540
     17 O1         -1.1500    0.2649   -4.7689 O.3       1 <0>        -0.6741
     18 O2         -3.7710    1.2228   -4.7569 O.3       1 <0>        -0.4639
     19 C14        -5.2637    1.3084   -2.3302 C.2       1 <0>         0.5793
     20 O3         -5.8178    1.7029   -3.3372 O.2       1 <0>        -0.5251
     21 N4         -5.9171    1.3234   -1.1515 N.am      1 <0>        -0.7178
     22 C15        -7.2955    1.8151   -1.0844 C.3       1 <0>         0.1615
     23 C16        -7.7918    1.7265    0.3358 C.ar      1 <0>        -0.1117
     24 C17        -8.4194    0.5767    0.7777 C.ar      1 <0>        -0.0695
     25 C18        -8.8745    0.4942    2.0800 C.ar      1 <0>        -0.1552
     26 C19        -8.7018    1.5636    2.9422 C.ar      1 <0>         0.1010
     27 C20        -8.0731    2.7147    2.4985 C.ar      1 <0>        -0.1557
     28 C21        -7.6141    2.7930    1.1973 C.ar      1 <0>        -0.0700
     29 F1         -9.1467    1.4842    4.2154 F         1 <0>        -0.1410
     30 H1          1.0047    1.8421    0.0024 H         1 <0>         0.0666
     31 H2         -0.5450    1.8259   -0.8730 H         1 <0>         0.0679
     32 H3         -0.5280    1.8163    0.9069 H         1 <0>         0.0199
     33 H4          0.2010   -0.1898    2.0852 H         1 <0>         0.0200
     34 H5          0.7062   -1.6171    1.1492 H         1 <0>         0.0713
     35 H6          1.7338   -0.1640    1.1806 H         1 <0>         0.0670
     36 H7         -1.9397   -0.2116    0.7767 H         1 <0>         0.0635
     37 H8          0.4236   -2.1314   -1.3519 H         1 <0>         0.1402
     38 H9          0.5223   -4.5917   -1.3619 H         1 <0>         0.1183
     39 H10        -1.1447   -5.8959   -0.1036 H         1 <0>         0.1146
     40 H11        -2.9101   -4.7397    1.1652 H         1 <0>         0.1160
     41 H12        -3.0038   -2.2792    1.1819 H         1 <0>         0.1185
     42 H13        -3.6427    2.1649   -4.9333 H         1 <0>         0.3664
     43 H14        -5.4748    1.0085   -0.3477 H         1 <0>         0.4111
     44 H15        -7.3277    2.8528   -1.4164 H         1 <0>         0.0759
     45 H16        -7.9299    1.2073   -1.7295 H         1 <0>         0.0762
     46 H17        -8.5543   -0.2572    0.1049 H         1 <0>         0.1359
     47 H18        -9.3651   -0.4041    2.4249 H         1 <0>         0.1363
     48 H19        -7.9381    3.5497    3.1701 H         1 <0>         0.1361
     49 H20        -7.1197    3.6890    0.8523 H         1 <0>         0.1355
@<TRIPOS>BOND
     1    1    2 1
     2    1   30 1
     3    1   31 1
     4    1   32 1
     5    2    3 1
     6    2    4 1
     7    3   33 1
     8    3   34 1
     9    3   35 1
    10    4    5 1
    11    4   36 1
    12    4   11 1
    13    5   10 ar
    14    5    6 ar
    15    6    7 ar
    16    6   37 1
    17    7    8 ar
    18    7   38 1
    19    8    9 ar
    20    8   39 1
    21    9   10 ar
    22    9   40 1
    23   10   41 1
    24   11   12 ar
    25   11   16 ar
    26   12   13 ar
    27   13   19 1
    28   13   14 ar
    29   14   18 1
    30   14   15 ar
    31   15   17 1
    32   15   16 ar
    33   18   42 1
    34   19   20 2
    35   19   21 am
    36   21   22 1
    37   21   43 1
    38   22   23 1
    39   22   44 1
    40   22   45 1
    41   23   28 ar
    42   23   24 ar
    43   24   25 ar
    44   24   46 1
    45   25   26 ar
    46   25   47 1
    47   26   27 ar
    48   26   29 1
    49   27   28 ar
    50   27   48 1
    51   28   49 1
@<TRIPOS>MOLECULE
CHEMBL217776__2
   50    52     0     0     0
SMALL
USER_CHARGES

@<TRIPOS>ATOM
      1 C1          0.1050    1.3766   -0.0178 C.3       1 <0>         0.0156
      2 N1          0.0318   -0.0904   -0.0407 N.3       1 <0>        -0.5139
      3 C2          0.8395   -0.6748    1.0381 C.3       1 <0>         0.0159
      4 C3         -1.3616   -0.5493    0.0371 C.3       1 <0>         0.1801
      5 C4         -1.3887   -2.0468    0.2038 C.ar      1 <0>        -0.1065
      6 C5         -0.4955   -2.8364   -0.4958 C.ar      1 <0>        -0.0814
      7 C6         -0.5204   -4.2100   -0.3429 C.ar      1 <0>        -0.1217
      8 C7         -1.4383   -4.7940    0.5100 C.ar      1 <0>        -0.1069
      9 C8         -2.3309   -4.0043    1.2103 C.ar      1 <0>        -0.1178
     10 C9         -2.3031   -2.6304    1.0607 C.ar      1 <0>        -0.1152
     11 C10        -2.0863   -0.1715   -1.2290 C.2       1 <0>         0.3649
     12 N2         -1.4581    0.5349   -2.1214 N.2       1 <0>        -0.4517
     13 C11        -2.0372    0.9106   -3.2763 C.2       1 <0>         0.0384
     14 C12        -3.3467    0.5383   -3.5348 C.2       1 <0>         0.0660
     15 C13        -4.0436   -0.2594   -2.5176 C.2       1 <0>         0.5014
     16 N3         -3.3656   -0.5861   -1.3953 N.am      1 <0>        -0.6118
     17 O1         -5.1962   -0.6192   -2.6825 O.2       1 <0>        -0.5146
     18 O2         -3.9638    0.8988   -4.6875 O.3       1 <0>        -0.4096
     19 C14        -1.2818    1.7155   -4.2625 C.2       1 <0>         0.5789
     20 O3         -1.8097    2.0522   -5.3041 O.2       1 <0>        -0.5086
     21 N4         -0.0085    2.0750   -4.0053 N.am      1 <0>        -0.7106
     22 C15         0.7391    2.8716   -4.9814 C.3       1 <0>         0.1625
     23 C16         2.1267    3.1363   -4.4565 C.ar      1 <0>        -0.1199
     24 C17         2.3722    4.2596   -3.6890 C.ar      1 <0>        -0.0690
     25 C18         3.6442    4.5031   -3.2067 C.ar      1 <0>        -0.1555
     26 C19         4.6729    3.6215   -3.4925 C.ar      1 <0>         0.1077
     27 C20         4.4258    2.4968   -4.2612 C.ar      1 <0>        -0.1546
     28 C21         3.1519    2.2526   -4.7380 C.ar      1 <0>        -0.0673
     29 F1          5.9169    3.8588   -3.0219 F         1 <0>        -0.1378
     30 H1          1.1491    1.6886   -0.0415 H         1 <0>         0.0733
     31 H2         -0.4146    1.7799   -0.8870 H         1 <0>         0.0924
     32 H3         -0.3652    1.7496    0.8920 H         1 <0>         0.0231
     33 H4          0.4701   -0.3214    2.0008 H         1 <0>         0.0281
     34 H5          0.7675   -1.7617    0.9981 H         1 <0>         0.0779
     35 H6          1.8803   -0.3749    0.9160 H         1 <0>         0.0763
     36 H7         -1.8515   -0.0798    0.8902 H         1 <0>         0.0830
     37 H8          0.2216   -2.3802   -1.1622 H         1 <0>         0.1368
     38 H9          0.1770   -4.8270   -0.8901 H         1 <0>         0.1264
     39 H10        -1.4582   -5.8673    0.6289 H         1 <0>         0.1250
     40 H11        -3.0482   -4.4606    1.8764 H         1 <0>         0.1268
     41 H12        -2.9980   -2.0131    1.6107 H         1 <0>         0.1241
     42 H13        -4.8752    0.5842   -4.7607 H         1 <0>         0.4062
     43 H14         0.4128    1.8063   -3.1740 H         1 <0>         0.4127
     44 H15         0.8046    2.3253   -5.9223 H         1 <0>         0.0807
     45 H16         0.2261    3.8191   -5.1463 H         1 <0>         0.0808
     46 H17         1.5697    4.9473   -3.4666 H         1 <0>         0.1352
     47 H18         3.8359    5.3809   -2.6075 H         1 <0>         0.1377
     48 H19         5.2275    1.8086   -4.4850 H         1 <0>         0.1379
     49 H20         2.9579    1.3730   -5.3339 H         1 <0>         0.1355
     50 H21        -3.7966   -1.1151   -0.7059 H         1 <0>         0.4233
@<TRIPOS>BOND
     1    1    2 1
     2    1   30 1
     3    1   31 1
     4    1   32 1
     5    2    3 1
     6    2    4 1
     7    3   33 1
     8    3   34 1
     9    3   35 1
    10    4    5 1
    11    4   36 1
    12    4   11 1
    13    5   10 ar
    14    5    6 ar
    15    6    7 ar
    16    6   37 1
    17    7    8 ar
    18    7   38 1
    19    8    9 ar
    20    8   39 1
    21    9   10 ar
    22    9   40 1
    23   10   41 1
    24   11   12 2
    25   11   16 1
    26   12   13 1
    27   13   19 1
    28   13   14 2
    29   14   18 1
    30   14   15 1
    31   15   17 2
    32   15   16 am
    33   16   50 1
    34   18   42 1
    35   19   20 2
    36   19   21 am
    37   21   22 1
    38   21   43 1
    39   22   23 1
    40   22   44 1
    41   22   45 1
    42   23   28 ar
    43   23   24 ar
    44   24   25 ar
    45   24   46 1
    46   25   26 ar
    47   25   47 1
    48   26   27 ar
    49   26   29 1
    50   27   28 ar
    51   27   48 1
    52   28   49 1
@<TRIPOS>MOLECULE
CHEMBL217776__3
   50    52     0     0     0
SMALL
USER_CHARGES

@<TRIPOS>ATOM
      1 C1         -0.0404   -0.6322    1.0532 C.3       1 <0>         0.0203
      2 N1         -0.3685   -0.3699   -0.3545 N.3       1 <0>        -0.5122
      3 C2          0.5889   -1.0323   -1.2504 C.3       1 <0>         0.0160
      4 C3         -1.7456   -0.7804   -0.6594 C.3       1 <0>         0.1700
      5 C4         -2.6762   -0.2396    0.3954 C.ar      1 <0>        -0.1088
      6 C5         -2.5954    1.0875    0.7738 C.ar      1 <0>        -0.0805
      7 C6         -3.4490    1.5835    1.7414 C.ar      1 <0>        -0.1189
      8 C7         -4.3836    0.7525    2.3303 C.ar      1 <0>        -0.1051
      9 C8         -4.4650   -0.5744    1.9512 C.ar      1 <0>        -0.1175
     10 C9         -3.6143   -1.0693    0.9806 C.ar      1 <0>        -0.1145
     11 C10        -2.1447   -0.2376   -2.0075 C.2       1 <0>         0.4401
     12 N2         -3.4030   -0.4221   -2.4294 N.pl3     1 <0>        -0.5797
     13 C11        -3.8216    0.0523   -3.6516 C.2       1 <0>         0.0043
     14 C12        -2.9257    0.7229   -4.4399 C.2       1 <0>         0.0719
     15 C13        -1.5560    0.8972   -3.9269 C.2       1 <0>         0.4906
     16 N3         -1.2519    0.3995   -2.7176 N.2       1 <0>        -0.5405
     17 O1         -0.7152    1.4863   -4.5864 O.2       1 <0>        -0.4844
     18 O2         -3.2868    1.2100   -5.6526 O.3       1 <0>        -0.4199
     19 C14        -5.2108   -0.1586   -4.1042 C.2       1 <0>         0.5694
     20 O3         -5.5429    0.1781   -5.2242 O.2       1 <0>        -0.4854
     21 N4         -6.1110   -0.7243   -3.2759 N.am      1 <0>        -0.7275
     22 C15        -7.4579   -1.0360   -3.7606 C.3       1 <0>         0.1648
     23 C16        -8.2613   -1.6570   -2.6470 C.ar      1 <0>        -0.1267
     24 C17        -8.2521   -3.0281   -2.4703 C.ar      1 <0>        -0.0697
     25 C18        -8.9880   -3.5987   -1.4493 C.ar      1 <0>        -0.1552
     26 C19        -9.7348   -2.7966   -0.6030 C.ar      1 <0>         0.1113
     27 C20        -9.7433   -1.4235   -0.7810 C.ar      1 <0>        -0.1544
     28 C21        -9.0023   -0.8547   -1.7995 C.ar      1 <0>        -0.0679
     29 F1        -10.4550   -3.3534    0.3952 F         1 <0>        -0.1356
     30 H1          0.9904   -0.3358    1.2473 H         1 <0>         0.0766
     31 H2         -0.7101   -0.0597    1.6950 H         1 <0>         0.0749
     32 H3         -0.1582   -1.6956    1.2616 H         1 <0>         0.0280
     33 H4          0.5160   -2.1127   -1.1253 H         1 <0>         0.0207
     34 H5          0.3611   -0.7700   -2.2836 H         1 <0>         0.0972
     35 H6          1.6000   -0.7058   -1.0072 H         1 <0>         0.0744
     36 H7         -1.8057   -1.8686   -0.6737 H         1 <0>         0.0867
     37 H8         -1.8652    1.7367    0.3137 H         1 <0>         0.1350
     38 H9         -3.3854    2.6201    2.0375 H         1 <0>         0.1270
     39 H10        -5.0501    1.1399    3.0867 H         1 <0>         0.1254
     40 H11        -5.1950   -1.2237    2.4115 H         1 <0>         0.1269
     41 H12        -3.6804   -2.1050    0.6817 H         1 <0>         0.1250
     42 H13        -2.5743    1.6652   -6.1217 H         1 <0>         0.4122
     43 H14        -5.8670   -0.9251   -2.3588 H         1 <0>         0.3949
     44 H15        -7.9455   -0.1196   -4.0930 H         1 <0>         0.0856
     45 H16        -7.3913   -1.7351   -4.5942 H         1 <0>         0.0847
     46 H17        -7.6698   -3.6536   -3.1307 H         1 <0>         0.1362
     47 H18        -8.9810   -4.6699   -1.3116 H         1 <0>         0.1395
     48 H19       -10.3256   -0.7969   -0.1217 H         1 <0>         0.1395
     49 H20        -9.0052    0.2166   -1.9357 H         1 <0>         0.1363
     50 H21        -4.0300   -0.8989   -1.8633 H         1 <0>         0.4190
@<TRIPOS>BOND
     1    1    2 1
     2    1   30 1
     3    1   31 1
     4    1   32 1
     5    2    3 1
     6    2    4 1
     7    3   33 1
     8    3   34 1
     9    3   35 1
    10    4    5 1
    11    4   36 1
    12    4   11 1
    13    5   10 ar
    14    5    6 ar
    15    6    7 ar
    16    6   37 1
    17    7    8 ar
    18    7   38 1
    19    8    9 ar
    20    8   39 1
    21    9   10 ar
    22    9   40 1
    23   10   41 1
    24   11   12 1
    25   11   16 2
    26   12   13 1
    27   12   50 1
    28   13   19 1
    29   13   14 2
    30   14   18 1
    31   14   15 1
    32   15   17 2
    33   15   16 1
    34   18   42 1
    35   19   20 2
    36   19   21 am
    37   21   22 1
    38   21   43 1
    39   22   23 1
    40   22   44 1
    41   22   45 1
    42   23   28 ar
    43   23   24 ar
    44   24   25 ar
    45   24   46 1
    46   25   26 ar
    47   25   47 1
    48   26   27 ar
    49   26   29 1
    50   27   28 ar
    51   27   48 1
    52   28   49 1
@<TRIPOS>MOLECULE
CHEMBL217776__4
   49    51     0     0     0
SMALL
USER_CHARGES

@<TRIPOS>ATOM
      1 C1          0.9694   -0.5479   -1.0630 C.3       1 <0>         0.0265
      2 N1          0.1071   -0.0856    0.0328 N.3       1 <0>        -0.5197
      3 C2          0.2211    1.3676    0.2151 C.3       1 <0>         0.0329
      4 C3         -1.2897   -0.4798   -0.1943 C.3       1 <0>         0.2049
      5 C4         -1.3763   -1.9801   -0.3066 C.ar      1 <0>        -0.0714
      6 C5         -0.7325   -2.7808    0.6182 C.ar      1 <0>        -0.0669
      7 C6         -0.8120   -4.1570    0.5151 C.ar      1 <0>        -0.1319
      8 C7         -1.5357   -4.7325   -0.5125 C.ar      1 <0>        -0.1233
      9 C8         -2.1803   -3.9318   -1.4368 C.ar      1 <0>        -0.1330
     10 C9         -2.1043   -2.5555   -1.3312 C.ar      1 <0>        -0.1107
     11 C10        -2.1375   -0.0127    0.9608 C.ar      1 <0>         0.3424
     12 N2         -3.2814    0.5820    0.7094 N.ar      1 <0>        -0.5788
     13 C11        -4.0641    1.0117    1.7015 C.ar      1 <0>         0.0840
     14 C12        -3.6473    0.8190    3.0206 C.ar      1 <0>        -0.0338
     15 C13        -2.4172    0.1785    3.2377 C.ar      1 <0>         0.4192
     16 N3         -1.7087   -0.2195    2.1922 N.ar      1 <0>        -0.5555
     17 O1         -1.9643   -0.0338    4.4977 O.3       1 <0>        -0.6738
     18 O2         -4.4091    1.2393    4.0621 O.3       1 <0>        -0.4641
     19 C14        -5.3518    1.6815    1.4088 C.2       1 <0>         0.5792
     20 O3         -6.0563    2.0686    2.3202 O.2       1 <0>        -0.5252
     21 N4         -5.7426    1.8618    0.1316 N.am      1 <0>        -0.7178
     22 C15        -7.0166    2.5246   -0.1580 C.3       1 <0>         0.1615
     23 C16        -7.2157    2.6002   -1.6499 C.ar      1 <0>        -0.1117
     24 C17        -6.7458    3.6926   -2.3549 C.ar      1 <0>        -0.0698
     25 C18        -6.9274    3.7629   -3.7231 C.ar      1 <0>        -0.1555
     26 C19        -7.5804    2.7387   -4.3877 C.ar      1 <0>         0.1010
     27 C20        -8.0507    1.6451   -3.6806 C.ar      1 <0>        -0.1554
     28 C21        -7.8632    1.5746   -2.3132 C.ar      1 <0>        -0.0696
     29 F1         -7.7589    2.8066   -5.7252 F         1 <0>        -0.1410
     30 H1          2.0073   -0.3045   -0.8360 H         1 <0>         0.0669
     31 H2          0.8657   -1.6270   -1.1764 H         1 <0>         0.0695
     32 H3          0.6749   -0.0553   -1.9896 H         1 <0>         0.0202
     33 H4         -0.0744    1.8734   -0.7041 H         1 <0>         0.0199
     34 H5         -0.4308    1.6838    1.0295 H         1 <0>         0.0693
     35 H6          1.2530    1.6238    0.4553 H         1 <0>         0.0667
     36 H7         -1.6502   -0.0249   -1.1169 H         1 <0>         0.0631
     37 H8         -0.1671   -2.3311    1.4210 H         1 <0>         0.1418
     38 H9         -0.3084   -4.7826    1.2372 H         1 <0>         0.1181
     39 H10        -1.5972   -5.8077   -0.5934 H         1 <0>         0.1143
     40 H11        -2.7454   -4.3814   -2.2398 H         1 <0>         0.1157
     41 H12        -2.6110   -1.9299   -2.0512 H         1 <0>         0.1177
     42 H13        -5.0403    0.5789    4.3794 H         1 <0>         0.3669
     43 H14        -5.1802    1.5528   -0.5959 H         1 <0>         0.4112
     44 H15        -7.8319    1.9557    0.2890 H         1 <0>         0.0759
     45 H16        -7.0052    3.5317    0.2586 H         1 <0>         0.0762
     46 H17        -6.2368    4.4915   -1.8362 H         1 <0>         0.1357
     47 H18        -6.5605    4.6165   -4.2736 H         1 <0>         0.1362
     48 H19        -8.5604    0.8458   -4.1979 H         1 <0>         0.1363
     49 H20        -8.2260    0.7196   -1.7620 H         1 <0>         0.1357
@<TRIPOS>BOND
     1    1    2 1
     2    1   30 1
     3    1   31 1
     4    1   32 1
     5    2    3 1
     6    2    4 1
     7    3   33 1
     8    3   34 1
     9    3   35 1
    10    4    5 1
    11    4   36 1
    12    4   11 1
    13    5   10 ar
    14    5    6 ar
    15    6    7 ar
    16    6   37 1
    17    7    8 ar
    18    7   38 1
    19    8    9 ar
    20    8   39 1
    21    9   10 ar
    22    9   40 1
    23   10   41 1
    24   11   12 ar
    25   11   16 ar
    26   12   13 ar
    27   13   19 1
    28   13   14 ar
    29   14   18 1
    30   14   15 ar
    31   15   17 1
    32   15   16 ar
    33   18   42 1
    34   19   20 2
    35   19   21 am
    36   21   22 1
    37   21   43 1
    38   22   23 1
    39   22   44 1
    40   22   45 1
    41   23   28 ar
    42   23   24 ar
    43   24   25 ar
    44   24   46 1
    45   25   26 ar
    46   25   47 1
    47   26   27 ar
    48   26   29 1
    49   27   28 ar
    50   27   48 1
    51   28   49 1
@<TRIPOS>MOLECULE
CHEMBL217776__5
   50    52     0     0     0
SMALL
USER_CHARGES

@<TRIPOS>ATOM
      1 C1          0.1398   -0.7004    1.7990 C.3       1 <0>         0.0121
      2 N1         -0.1296    0.0338    0.5555 N.3       1 <0>        -0.5027
      3 C2          1.0407    0.0134   -0.3321 C.3       1 <0>         0.0209
      4 C3         -1.3161   -0.5016   -0.1254 C.3       1 <0>         0.1782
      5 C4         -1.1907   -1.9981   -0.2511 C.ar      1 <0>        -0.1420
      6 C5         -1.3224   -2.7991    0.8678 C.ar      1 <0>        -0.1001
      7 C6         -1.2073   -4.1718    0.7525 C.ar      1 <0>        -0.1196
      8 C7         -0.9610   -4.7435   -0.4817 C.ar      1 <0>        -0.1053
      9 C8         -0.8302   -3.9426   -1.6008 C.ar      1 <0>        -0.1184
     10 C9         -0.9495   -2.5702   -1.4862 C.ar      1 <0>        -0.0987
     11 C10        -2.5485   -0.1662    0.6745 C.2       1 <0>         0.3624
     12 N2         -2.4242    0.5864    1.7273 N.2       1 <0>        -0.4490
     13 C11        -3.4769    0.9297    2.4916 C.2       1 <0>         0.0385
     14 C12        -4.7410    0.4720    2.1558 C.2       1 <0>         0.0652
     15 C13        -4.8659   -0.3771    0.9641 C.2       1 <0>         0.5011
     16 N3         -3.7436   -0.6562    0.2652 N.am      1 <0>        -0.6113
     17 O1         -5.9488   -0.8130    0.6140 O.2       1 <0>        -0.5152
     18 O2         -5.8257    0.7967    2.9024 O.3       1 <0>        -0.4098
     19 C14        -3.2862    1.7888    3.6818 C.2       1 <0>         0.5786
     20 O3         -4.2406    2.0959    4.3688 O.2       1 <0>        -0.5097
     21 N4         -2.0543    2.2306    4.0037 N.am      1 <0>        -0.7099
     22 C15        -1.8655    3.0809    5.1816 C.3       1 <0>         0.1626
     23 C16        -0.4068    3.4340    5.3177 C.ar      1 <0>        -0.1195
     24 C17         0.4356    2.6190    6.0506 C.ar      1 <0>        -0.0688
     25 C18         1.7736    2.9416    6.1758 C.ar      1 <0>        -0.1556
     26 C19         2.2702    4.0816    5.5668 C.ar      1 <0>         0.1076
     27 C20         1.4255    4.8971    4.8330 C.ar      1 <0>        -0.1547
     28 C21         0.0890    4.5697    4.7049 C.ar      1 <0>        -0.0673
     29 F1          3.5779    4.3981    5.6888 F         1 <0>        -0.1379
     30 H1          0.9802   -0.2396    2.3182 H         1 <0>         0.0722
     31 H2         -0.7430   -0.6695    2.4377 H         1 <0>         0.0787
     32 H3          0.3820   -1.7368    1.5639 H         1 <0>         0.0372
     33 H4          1.3655   -1.0163   -0.4815 H         1 <0>         0.0325
     34 H5          0.7756    0.4538   -1.2932 H         1 <0>         0.0699
     35 H6          1.8496    0.5875    0.1200 H         1 <0>         0.0774
     36 H7         -1.3958   -0.0590   -1.1183 H         1 <0>         0.1211
     37 H8         -1.5148   -2.3524    1.8321 H         1 <0>         0.1233
     38 H9         -1.3095   -4.7976    1.6268 H         1 <0>         0.1253
     39 H10        -0.8704   -5.8160   -0.5717 H         1 <0>         0.1255
     40 H11        -0.6374   -4.3892   -2.5650 H         1 <0>         0.1271
     41 H12        -0.8510   -1.9446   -2.3611 H         1 <0>         0.1270
     42 H13        -6.6550    0.4222    2.5750 H         1 <0>         0.4060
     43 H14        -1.2926    1.9855    3.4554 H         1 <0>         0.4140
     44 H15        -2.4512    3.9932    5.0688 H         1 <0>         0.0805
     45 H16        -2.1945    2.5458    6.0725 H         1 <0>         0.0804
     46 H17         0.0480    1.7300    6.5259 H         1 <0>         0.1349
     47 H18         2.4315    2.3049    6.7487 H         1 <0>         0.1375
     48 H19         1.8117    5.7867    4.3578 H         1 <0>         0.1379
     49 H20        -0.5692    5.2032    4.1288 H         1 <0>         0.1355
     50 H21        -3.7931   -1.2114   -0.5286 H         1 <0>         0.4244
@<TRIPOS>BOND
     1    1    2 1
     2    1   30 1
     3    1   31 1
     4    1   32 1
     5    2    3 1
     6    2    4 1
     7    3   33 1
     8    3   34 1
     9    3   35 1
    10    4    5 1
    11    4   36 1
    12    4   11 1
    13    5   10 ar
    14    5    6 ar
    15    6    7 ar
    16    6   37 1
    17    7    8 ar
    18    7   38 1
    19    8    9 ar
    20    8   39 1
    21    9   10 ar
    22    9   40 1
    23   10   41 1
    24   11   12 2
    25   11   16 1
    26   12   13 1
    27   13   19 1
    28   13   14 2
    29   14   18 1
    30   14   15 1
    31   15   17 2
    32   15   16 am
    33   16   50 1
    34   18   42 1
    35   19   20 2
    36   19   21 am
    37   21   22 1
    38   21   43 1
    39   22   23 1
    40   22   44 1
    41   22   45 1
    42   23   28 ar
    43   23   24 ar
    44   24   25 ar
    45   24   46 1
    46   25   26 ar
    47   25   47 1
    48   26   27 ar
    49   26   29 1
    50   27   28 ar
    51   27   48 1
    52   28   49 1
@<TRIPOS>MOLECULE
CHEMBL35109
   26    28     0     0     0
SMALL
USER_CHARGES

@<TRIPOS>ATOM
      1 C1         -0.0161    1.3841   -0.0162 C.ar      1 <0>        -0.1008
      2 C2          1.1603    2.1020   -0.0151 C.ar      1 <0>        -0.1281
      3 C3          2.3806    1.4352   -0.0264 C.ar      1 <0>         0.0848
      4 C4          2.3984    0.0310   -0.0388 C.ar      1 <0>        -0.0673
      5 C5          1.2028   -0.6829   -0.0401 C.ar      1 <0>        -0.0339
      6 C6          0.0026   -0.0038   -0.0285 C.ar      1 <0>        -0.0720
      7 Cl1        -1.4911   -0.8884   -0.0291 Cl        1 <0>        -0.0884
      8 C7          3.8210   -0.3550   -0.0485 C.2       1 <0>        -0.1764
      9 C8          4.5371    0.8060   -0.0415 C.2       1 <0>         0.0741
     10 N1          3.6919    1.8657   -0.0284 N.pl3     1 <0>        -0.5910
     11 H1          3.9695    2.7951   -0.0218 H         1 <0>         0.4099
     12 C9          4.3621   -1.7231   -0.0628 C.2       1 <0>         0.4303
     13 C10         5.7634   -1.9305   -0.0709 C.2       1 <0>        -0.5124
     14 C11         6.2642   -3.1892    0.0279 C.2       1 <0>         0.4293
     15 O1          7.6001   -3.3801    0.1239 O.3       1 <0>        -0.7068
     16 C12         5.3515   -4.3479    0.0307 C.2       1 <0>         0.1155
     17 N2          4.9925   -5.0854   -1.0234 N.2       1 <0>        -0.3887
     18 N3          4.1856   -5.9976   -0.6005 N.2       1 <0>        -0.2256
     19 N4          4.0223   -5.8661    0.6692 N.2       1 <0>        -0.2225
     20 N5          4.7256   -4.8702    1.0886 N.2       1 <0>        -0.3796
     21 O2          3.6045   -2.6782   -0.0679 O.2       1 <0>        -0.5095
     22 H2         -0.9614    1.9062   -0.0029 H         1 <0>         0.1269
     23 H3          1.1344    3.1817   -0.0059 H         1 <0>         0.1208
     24 H4          1.2154   -1.7627   -0.0500 H         1 <0>         0.1456
     25 H5          5.6151    0.8712   -0.0454 H         1 <0>         0.1813
     26 H6          6.4335   -1.0878   -0.1556 H         1 <0>         0.0844
@<TRIPOS>BOND
     1    1    6 ar
     2    1    2 ar
     3    1   22 1
     4    2    3 ar
     5    2   23 1
     6    3   10 1
     7    3    4 ar
     8    4    5 ar
     9    4    8 1
    10    5    6 ar
    11    5   24 1
    12    6    7 1
    13    8    9 2
    14    8   12 1
    15    9   10 1
    16    9   25 1
    17   10   11 1
    18   12   13 1
    19   12   21 2
    20   13   26 1
    21   13   14 2
    22   14   16 1
    23   14   15 1
    24   16   17 1
    25   16   20 2
    26   17   18 1
    27   18   19 2
    28   19   20 1
@<TRIPOS>MOLECULE
CHEMBL35109__1
   26    28     0     0     0
SMALL
USER_CHARGES

@<TRIPOS>ATOM
      1 C1         -0.0167    1.3838    0.0097 C.ar      1 <0>        -0.1030
      2 C2          1.1595    2.1019    0.0023 C.ar      1 <0>        -0.1266
      3 C3          2.3798    1.4352   -0.0129 C.ar      1 <0>         0.0841
      4 C4          2.3979    0.0310   -0.0206 C.ar      1 <0>        -0.0687
      5 C5          1.2023   -0.6830   -0.0134 C.ar      1 <0>        -0.0365
      6 C6          0.0021   -0.0041    0.0020 C.ar      1 <0>        -0.0736
      7 Cl1        -1.4915   -0.8889    0.0120 Cl        1 <0>        -0.0917
      8 C7          3.8204   -0.3548   -0.0362 C.2       1 <0>        -0.1770
      9 C8          4.5363    0.8064   -0.0368 C.2       1 <0>         0.0744
     10 N1          3.6911    1.8659   -0.0231 N.pl3     1 <0>        -0.5906
     11 H1          3.9685    2.7954   -0.0211 H         1 <0>         0.4102
     12 C9          4.3617   -1.7228   -0.0486 C.2       1 <0>         0.4243
     13 C10         5.7629   -1.9301   -0.0631 C.2       1 <0>        -0.5039
     14 C11         6.2625   -3.1931   -0.0746 C.2       1 <0>         0.4006
     15 O1          5.4219   -4.2532   -0.0723 O.3       1 <0>        -0.6447
     16 C12         7.7215   -3.4089   -0.0897 C.2       1 <0>         0.0650
     17 N2          8.3559   -4.5841   -0.1020 N.2       1 <0>        -0.3591
     18 N3          9.6218   -4.3404   -0.1127 N.2       1 <0>        -0.2234
     19 N4          9.8101   -3.0674   -0.1077 N.2       1 <0>        -0.2215
     20 N5          8.6690   -2.4676   -0.0995 N.2       1 <0>        -0.3694
     21 O2          3.6042   -2.6781   -0.0465 O.2       1 <0>        -0.5279
     22 H2         -0.9621    1.9059    0.0260 H         1 <0>         0.1261
     23 H3          1.1335    3.1816    0.0079 H         1 <0>         0.1206
     24 H4          1.2150   -1.7629   -0.0196 H         1 <0>         0.1450
     25 H5          5.6143    0.8716   -0.0464 H         1 <0>         0.1837
     26 H6          6.4339   -1.0839   -0.0650 H         1 <0>         0.0837
@<TRIPOS>BOND
     1    1    6 ar
     2    1    2 ar
     3    1   22 1
     4    2    3 ar
     5    2   23 1
     6    3   10 1
     7    3    4 ar
     8    4    5 ar
     9    4    8 1
    10    5    6 ar
    11    5   24 1
    12    6    7 1
    13    8    9 2
    14    8   12 1
    15    9   10 1
    16    9   25 1
    17   10   11 1
    18   12   13 1
    19   12   21 2
    20   13   26 1
    21   13   14 2
    22   14   16 1
    23   14   15 1
    24   16   17 1
    25   16   20 2
    26   17   18 1
    27   18   19 2
    28   19   20 1
@<TRIPOS>MOLECULE
CHEMBL35109__2
   27    29     0     0     0
SMALL
USER_CHARGES

@<TRIPOS>ATOM
      1 C1         -0.0167    1.3836    0.0096 C.ar      1 <0>        -0.0965
      2 C2          1.1594    2.1017    0.0023 C.ar      1 <0>        -0.1099
      3 C3          2.3803    1.4352   -0.0129 C.ar      1 <0>         0.0787
      4 C4          2.3973    0.0316   -0.0206 C.ar      1 <0>        -0.0506
      5 C5          1.2031   -0.6825   -0.0126 C.ar      1 <0>        -0.0551
      6 C6          0.0021   -0.0041    0.0020 C.ar      1 <0>        -0.0524
      7 Cl1        -1.4912   -0.8893    0.0120 Cl        1 <0>        -0.0710
      8 C7          3.8222   -0.3539   -0.0367 C.2       1 <0>        -0.2552
      9 C8          4.5389    0.8239   -0.0375 C.2       1 <0>         0.1367
     10 N1          3.6907    1.8696   -0.0235 N.pl3     1 <0>        -0.5692
     11 H1          3.9631    2.8006   -0.0212 H         1 <0>         0.4226
     12 C9          4.3477   -1.6700   -0.0482 C.2       1 <0>         0.4127
     13 C10         5.8391   -1.8857   -0.0641 C.3       1 <0>        -0.1953
     14 C11         6.1328   -3.3638   -0.0741 C.2       1 <0>         0.4555
     15 O1          5.2213   -4.1629   -0.0687 O.2       1 <0>        -0.4262
     16 C12         7.5282   -3.8377   -0.0903 C.2       1 <0>        -0.0197
     17 N2          7.9412   -5.1077   -0.1005 N.2       1 <0>        -0.3266
     18 N3          9.2302   -5.0953   -0.1133 N.2       1 <0>        -0.1859
     19 N4          9.6441   -3.8768   -0.1117 N.2       1 <0>        -0.1827
     20 N5          8.6291   -3.0819   -0.1036 N.2       1 <0>        -0.3446
     21 O2          3.5965   -2.6236   -0.0452 O.2       1 <0>        -0.4260
     22 H2         -0.9621    1.9057    0.0260 H         1 <0>         0.1368
     23 H3          1.1333    3.1814    0.0079 H         1 <0>         0.1312
     24 H4          1.2164   -1.7624   -0.0189 H         1 <0>         0.1457
     25 H5          5.6164    0.8966   -0.0472 H         1 <0>         0.1935
     26 H6          6.2634   -1.4250   -0.9563 H         1 <0>         0.1267
     27 H7          6.2812   -1.4334    0.8236 H         1 <0>         0.1267
@<TRIPOS>BOND
     1    1    6 ar
     2    1    2 ar
     3    1   22 1
     4    2    3 ar
     5    2   23 1
     6    3   10 1
     7    3    4 ar
     8    4    5 ar
     9    4    8 1
    10    5    6 ar
    11    5   24 1
    12    6    7 1
    13    8    9 2
    14    8   12 1
    15    9   10 1
    16    9   25 1
    17   10   11 1
    18   12   13 1
    19   12   21 2
    20   13   26 1
    21   13   27 1
    22   13   14 1
    23   14   16 1
    24   14   15 2
    25   16   17 1
    26   16   20 2
    27   17   18 1
    28   18   19 2
    29   19   20 1
@<TRIPOS>MOLECULE
CHEMBL415678
   42    43     0     0     0
SMALL
USER_CHARGES

@<TRIPOS>ATOM
      1 C1         -0.0169    1.3932    0.0097 C.ar      1 <0>        -0.0437
      2 C2          1.1669    2.0983    0.0022 C.ar      1 <0>        -0.1428
      3 C3          2.3803    1.4238   -0.0130 C.ar      1 <0>         0.0972
      4 C4          2.4066    0.0297   -0.0208 C.ar      1 <0>         0.0601
      5 C5          1.2240   -0.6833   -0.0133 C.ar      1 <0>        -0.0707
      6 C6          0.0021   -0.0041    0.0020 C.ar      1 <0>        -0.0866
      7 C7         -1.2639   -0.7604    0.0105 C.2       1 <0>         0.5030
      8 O1         -1.2458   -1.9753    0.0038 O.2       1 <0>        -0.5167
      9 O2         -2.4407   -0.1042    0.0257 O.3       1 <0>        -0.2998
     10 C8         -3.6274   -0.9003    0.0333 C.3       1 <0>         0.0443
     11 C9         -4.7539   -0.1432   -0.6728 C.3       1 <0>         0.0442
     12 C10        -4.3040    0.2517   -2.0558 C.2       1 <0>         0.4999
     13 O3         -4.0646   -0.6071   -2.8874 O.co2     1 <0>        -0.6912
     14 O4         -4.1794    1.4300   -2.3431 O.co2     1 <0>        -0.6817
     15 O5         -5.0810    1.0300    0.0748 O.3       1 <0>        -0.2998
     16 C11        -6.3549    1.4636    0.0064 C.2       1 <0>         0.5030
     17 O6         -7.1659    0.8622   -0.6696 O.2       1 <0>        -0.5167
     18 C12        -6.7648    2.6682    0.7519 C.ar      1 <0>        -0.0865
     19 C13        -5.8321    3.3644    1.5252 C.ar      1 <0>        -0.0438
     20 C14        -6.2168    4.4896    2.2211 C.ar      1 <0>        -0.1428
     21 C15        -7.5303    4.9346    2.1563 C.ar      1 <0>         0.0972
     22 C16        -8.4663    4.2448    1.3867 C.ar      1 <0>         0.0602
     23 C17        -8.0863    3.1196    0.6820 C.ar      1 <0>        -0.0709
     24 O7         -9.7522    4.6834    1.3254 O.3       1 <0>        -0.4854
     25 O8         -7.9044    6.0438    2.8444 O.3       1 <0>        -0.4888
     26 C18        -4.0304   -1.1878    1.4566 C.2       1 <0>         0.4999
     27 O9         -3.4177   -0.6770    2.3787 O.co2     1 <0>        -0.6818
     28 O10        -4.9692   -1.9311    1.6861 O.co2     1 <0>        -0.6912
     29 O11         3.5970   -0.6278   -0.0361 O.3       1 <0>        -0.4854
     30 O12         3.5440    2.1234   -0.0208 O.3       1 <0>        -0.4887
     31 H1         -0.9593    1.9204    0.0260 H         1 <0>         0.1543
     32 H2          1.1508    3.1781    0.0078 H         1 <0>         0.1395
     33 H3          1.2430   -1.7631   -0.0196 H         1 <0>         0.1468
     34 H4         -3.4384   -1.8390   -0.4875 H         1 <0>         0.0977
     35 H5         -5.6325   -0.7842   -0.7457 H         1 <0>         0.0977
     36 H6         -4.8097    3.0203    1.5776 H         1 <0>         0.1543
     37 H7         -5.4950    5.0266    2.8187 H         1 <0>         0.1395
     38 H8         -8.8091    2.5871    0.0816 H         1 <0>         0.1468
     39 H9         -9.9197    5.3118    0.6097 H         1 <0>         0.3811
     40 H10        -7.8084    6.8669    2.3460 H         1 <0>         0.3837
     41 H11         3.9501   -0.8227    0.8428 H         1 <0>         0.3812
     42 H12         3.8897    2.3216    0.8603 H         1 <0>         0.3836
@<TRIPOS>BOND
     1    1    6 ar
     2    1    2 ar
     3    1   31 1
     4    2    3 ar
     5    2   32 1
     6    3    4 ar
     7    3   30 1
     8    4    5 ar
     9    4   29 1
    10    5    6 ar
    11    5   33 1
    12    6    7 1
    13    7    8 2
    14    7    9 1
    15    9   10 1
    16   10   11 1
    17   10   26 1
    18   10   34 1
    19   11   12 1
    20   11   15 1
    21   11   35 1
    22   12   13 2
    23   12   14 1
    24   15   16 1
    25   16   17 2
    26   16   18 1
    27   18   23 ar
    28   18   19 ar
    29   19   20 ar
    30   19   36 1
    31   20   21 ar
    32   20   37 1
    33   21   22 ar
    34   21   25 1
    35   22   23 ar
    36   22   24 1
    37   23   38 1
    38   24   39 1
    39   25   40 1
    40   26   27 2
    41   26   28 1
    42   29   41 1
    43   30   42 1
@<TRIPOS>MOLECULE
CHEMBL415678__1
   42    43     0     0     0
SMALL
USER_CHARGES

@<TRIPOS>ATOM
      1 C1         -0.0169    1.3932    0.0097 C.ar      1 <0>        -0.0393
      2 C2          1.1669    2.0983    0.0022 C.ar      1 <0>        -0.1437
      3 C3          2.3803    1.4238   -0.0130 C.ar      1 <0>         0.0972
      4 C4          2.4066    0.0297   -0.0208 C.ar      1 <0>         0.0589
      5 C5          1.2240   -0.6833   -0.0133 C.ar      1 <0>        -0.0711
      6 C6          0.0021   -0.0041    0.0020 C.ar      1 <0>        -0.0846
      7 C7         -1.2639   -0.7604    0.0105 C.2       1 <0>         0.5089
      8 O1         -1.2458   -1.9753    0.0038 O.2       1 <0>        -0.5206
      9 O2         -2.4407   -0.1042    0.0257 O.3       1 <0>        -0.2883
     10 C8         -3.6274   -0.9003    0.0333 C.3       1 <0>         0.0439
     11 C9         -4.7539   -0.1432   -0.6728 C.3       1 <0>         0.0438
     12 C10        -4.3509    0.1443   -2.0962 C.2       1 <0>         0.4938
     13 O3         -4.9636   -0.3664   -3.0182 O.co2     1 <0>        -0.6887
     14 O4         -3.4121    0.8876   -2.3256 O.co2     1 <0>        -0.6766
     15 O5         -5.9406   -0.9393   -0.6653 O.3       1 <0>        -0.2883
     16 C11        -7.1174   -0.2830   -0.6501 C.2       1 <0>         0.5088
     17 O6         -7.1355    0.9319   -0.6434 O.2       1 <0>        -0.5205
     18 C12        -8.3834   -1.0394   -0.6416 C.ar      1 <0>        -0.0845
     19 C13        -8.3644   -2.4367   -0.6435 C.ar      1 <0>        -0.0394
     20 C14        -9.5481   -3.1418   -0.6355 C.ar      1 <0>        -0.1436
     21 C15       -10.7616   -2.4673   -0.6257 C.ar      1 <0>         0.0972
     22 C16       -10.7880   -1.0732   -0.6237 C.ar      1 <0>         0.0589
     23 C17        -9.6053   -0.3601   -0.6258 C.ar      1 <0>        -0.0713
     24 O7        -11.9784   -0.4156   -0.6140 O.3       1 <0>        -0.4857
     25 O8        -11.9253   -3.1669   -0.6183 O.3       1 <0>        -0.4894
     26 C18        -4.0304   -1.1878    1.4566 C.2       1 <0>         0.4950
     27 O9         -3.4177   -0.6770    2.3787 O.co2     1 <0>        -0.6901
     28 O10        -4.9692   -1.9311    1.6861 O.co2     1 <0>        -0.6772
     29 O11         3.5970   -0.6278   -0.0361 O.3       1 <0>        -0.4855
     30 O12         3.5440    2.1234   -0.0208 O.3       1 <0>        -0.4888
     31 H1         -0.9593    1.9204    0.0260 H         1 <0>         0.1551
     32 H2          1.1508    3.1781    0.0078 H         1 <0>         0.1393
     33 H3          1.2430   -1.7631   -0.0196 H         1 <0>         0.1464
     34 H4         -3.4384   -1.8390   -0.4875 H         1 <0>         0.0805
     35 H5         -4.9429    0.7956   -0.1520 H         1 <0>         0.0803
     36 H6         -7.4218   -2.9639   -0.6515 H         1 <0>         0.1551
     37 H7         -9.5320   -4.2216   -0.6374 H         1 <0>         0.1392
     38 H8         -9.6243    0.7197   -0.6194 H         1 <0>         0.1464
     39 H9        -12.3161   -0.2266    0.2722 H         1 <0>         0.3808
     40 H10       -12.2560   -3.3709    0.2672 H         1 <0>         0.3839
     41 H11         3.9501   -0.8227    0.8428 H         1 <0>         0.3807
     42 H12         3.8897    2.3216    0.8603 H         1 <0>         0.3833
@<TRIPOS>BOND
     1    1    6 ar
     2    1    2 ar
     3    1   31 1
     4    2    3 ar
     5    2   32 1
     6    3    4 ar
     7    3   30 1
     8    4    5 ar
     9    4   29 1
    10    5    6 ar
    11    5   33 1
    12    6    7 1
    13    7    8 2
    14    7    9 1
    15    9   10 1
    16   10   11 1
    17   10   26 1
    18   10   34 1
    19   11   12 1
    20   11   15 1
    21   11   35 1
    22   12   13 2
    23   12   14 1
    24   15   16 1
    25   16   17 2
    26   16   18 1
    27   18   23 ar
    28   18   19 ar
    29   19   20 ar
    30   19   36 1
    31   20   21 ar
    32   20   37 1
    33   21   22 ar
    34   21   25 1
    35   22   23 ar
    36   22   24 1
    37   23   38 1
    38   24   39 1
    39   25   40 1
    40   26   27 2
    41   26   28 1
    42   29   41 1
    43   30   42 1
@<TRIPOS>MOLECULE
CHEMBL415678__2
   42    43     0     0     0
SMALL
USER_CHARGES

@<TRIPOS>ATOM
      1 C1         -0.0169    1.3932    0.0097 C.ar      1 <0>        -0.0436
      2 C2          1.1669    2.0983    0.0022 C.ar      1 <0>        -0.1427
      3 C3          2.3803    1.4238   -0.0130 C.ar      1 <0>         0.0974
      4 C4          2.4066    0.0297   -0.0208 C.ar      1 <0>         0.0599
      5 C5          1.2240   -0.6833   -0.0133 C.ar      1 <0>        -0.0708
      6 C6          0.0021   -0.0041    0.0020 C.ar      1 <0>        -0.0869
      7 C7         -1.2639   -0.7604    0.0105 C.2       1 <0>         0.5032
      8 O1         -1.2458   -1.9753    0.0038 O.2       1 <0>        -0.5169
      9 O2         -2.4407   -0.1042    0.0257 O.3       1 <0>        -0.2997
     10 C8         -3.6274   -0.9003    0.0333 C.3       1 <0>         0.0444
     11 C9         -4.7396   -0.1509    0.7696 C.3       1 <0>         0.0443
     12 C10        -4.2623    0.2292    2.1476 C.2       1 <0>         0.4997
     13 O3         -4.1318    1.4044    2.4449 O.co2     1 <0>        -0.6808
     14 O4         -4.0065   -0.6385    2.9650 O.co2     1 <0>        -0.6922
     15 O5         -5.0813    1.0301    0.0413 O.3       1 <0>        -0.2997
     16 C11        -6.3536    1.4629    0.1397 C.2       1 <0>         0.5032
     17 O6         -7.1511    0.8542    0.8251 O.2       1 <0>        -0.5169
     18 C12        -6.7781    2.6754   -0.5846 C.ar      1 <0>        -0.0869
     19 C13        -5.8637    3.3735   -1.3779 C.ar      1 <0>        -0.0436
     20 C14        -6.2620    4.5061   -2.0538 C.ar      1 <0>        -0.1426
     21 C15        -7.5710    4.9567   -1.9490 C.ar      1 <0>         0.0974
     22 C16        -8.4887    4.2650   -1.1593 C.ar      1 <0>         0.0600
     23 C17        -8.0978    3.1258   -0.4836 C.ar      1 <0>        -0.0709
     24 O7         -9.7703    4.7092   -1.0589 O.3       1 <0>        -0.4856
     25 O8         -7.9584    6.0737   -2.6169 O.3       1 <0>        -0.4892
     26 C18        -4.0586   -1.1725   -1.3848 C.2       1 <0>         0.4997
     27 O9         -5.0019   -1.9134   -1.6036 O.co2     1 <0>        -0.6923
     28 O10        -3.4643   -0.6519   -2.3134 O.co2     1 <0>        -0.6808
     29 O11         3.5970   -0.6278   -0.0361 O.3       1 <0>        -0.4857
     30 O12         3.5440    2.1234   -0.0208 O.3       1 <0>        -0.4892
     31 H1         -0.9593    1.9204    0.0260 H         1 <0>         0.1544
     32 H2          1.1508    3.1781    0.0078 H         1 <0>         0.1396
     33 H3          1.2430   -1.7631   -0.0196 H         1 <0>         0.1468
     34 H4         -3.4282   -1.8445    0.5401 H         1 <0>         0.0976
     35 H5         -5.6166   -0.7928    0.8531 H         1 <0>         0.0976
     36 H6         -4.8447    3.0254   -1.4609 H         1 <0>         0.1544
     37 H7         -5.5542    5.0449   -2.6663 H         1 <0>         0.1396
     38 H8         -8.8088    2.5864    0.1246 H         1 <0>         0.1468
     39 H9        -10.3669    4.3428   -1.7258 H         1 <0>         0.3812
     40 H10        -8.2966    5.9027   -3.5065 H         1 <0>         0.3842
     41 H11         3.9501   -0.8227    0.8428 H         1 <0>         0.3813
     42 H12         3.8897    2.3216    0.8603 H         1 <0>         0.3842
@<TRIPOS>BOND
     1    1    6 ar
     2    1    2 ar
     3    1   31 1
     4    2    3 ar
     5    2   32 1
     6    3    4 ar
     7    3   30 1
     8    4    5 ar
     9    4   29 1
    10    5    6 ar
    11    5   33 1
    12    6    7 1
    13    7    8 2
    14    7    9 1
    15    9   10 1
    16   10   11 1
    17   10   26 1
    18   10   34 1
    19   11   12 1
    20   11   15 1
    21   11   35 1
    22   12   13 2
    23   12   14 1
    24   15   16 1
    25   16   17 2
    26   16   18 1
    27   18   23 ar
    28   18   19 ar
    29   19   20 ar
    30   19   36 1
    31   20   21 ar
    32   20   37 1
    33   21   22 ar
    34   21   25 1
    35   22   23 ar
    36   22   24 1
    37   23   38 1
    38   24   39 1
    39   25   40 1
    40   26   27 2
    41   26   28 1
    42   29   41 1
    43   30   42 1
@<TRIPOS>MOLECULE
CHEMBL441683
   52    55     0     0     0
SMALL
USER_CHARGES

@<TRIPOS>ATOM
      1 C1         -1.0521    0.2281   -2.1022 C.3       1 <0>        -0.0467
      2 N1         -0.5011   -0.6057   -1.0256 N.4       1 <0>        -0.3822
      3 C2         -0.5668   -2.0184   -1.4206 C.3       1 <0>        -0.0236
      4 C3          0.1111   -2.8792   -0.3495 C.3       1 <0>         0.1210
      5 N2         -0.5114   -2.5826    0.9500 N.pl3     1 <0>        -0.6573
      6 C4         -0.6354   -1.1734    1.3536 C.3       1 <0>         0.1207
      7 C5         -1.2780   -0.3930    0.2022 C.3       1 <0>        -0.0235
      8 C6         -0.9685   -3.6020    1.7706 C.ar      1 <0>         0.3929
      9 C7         -0.0813   -4.2014    2.7615 C.ar      1 <0>        -0.1245
     10 C8          1.2457   -3.7813    2.9239 C.ar      1 <0>        -0.0446
     11 C9          2.0041   -4.4018    3.8798 C.ar      1 <0>        -0.1513
     12 C10         1.4507   -5.4173    4.6546 C.ar      1 <0>         0.1487
     13 N3          0.2066   -5.8061    4.4966 N.ar      1 <0>        -0.4466
     14 C11        -0.5812   -5.2404    3.5835 C.ar      1 <0>         0.1209
     15 C12        -1.9243   -5.6449    3.3992 C.ar      1 <0>         0.1925
     16 C13        -2.6926   -5.0162    2.4314 C.ar      1 <0>         0.0273
     17 N4         -2.2077   -4.0324    1.6654 N.ar      1 <0>        -0.4493
     18 C14        -4.0926   -5.4425    2.2439 C.2       1 <0>         0.5700
     19 O1         -4.5548   -6.3317    2.9325 O.2       1 <0>        -0.5041
     20 N5         -4.8591   -4.8462    1.3093 N.am      1 <0>        -0.7101
     21 C15        -6.2492   -5.2694    1.1231 C.3       1 <0>         0.1602
     22 C16        -6.8806   -4.4517    0.0260 C.ar      1 <0>        -0.1224
     23 C17        -7.5197   -3.2642    0.3301 C.ar      1 <0>        -0.0698
     24 C18        -8.0987   -2.5133   -0.6753 C.ar      1 <0>        -0.1560
     25 C19        -8.0384   -2.9507   -1.9876 C.ar      1 <0>         0.1094
     26 C20        -7.3980   -4.1402   -2.2910 C.ar      1 <0>        -0.1556
     27 C21        -6.8152   -4.8868   -1.2846 C.ar      1 <0>        -0.0696
     28 F1         -8.6044   -2.2176   -2.9712 F         1 <0>        -0.1352
     29 O2         -2.4535   -6.6355    4.1593 O.3       1 <0>        -0.4483
     30 H1         -0.9966    1.2777   -1.8135 H         1 <0>         0.1248
     31 H2         -0.4762    0.0712   -3.0142 H         1 <0>         0.1248
     32 H3         -2.0924   -0.0459   -2.2777 H         1 <0>         0.1216
     33 H4         -1.6095   -2.3192   -1.5224 H         1 <0>         0.1342
     34 H5         -0.0547   -2.1535   -2.3733 H         1 <0>         0.1398
     35 H6         -0.0240   -3.9342   -0.5880 H         1 <0>         0.1173
     36 H7          1.1744   -2.6431   -0.3087 H         1 <0>         0.0880
     37 H8         -1.2639   -1.1006    2.2412 H         1 <0>         0.1170
     38 H9          0.3526   -0.7650    1.5664 H         1 <0>         0.0876
     39 H10        -1.2900    0.6694    0.4453 H         1 <0>         0.1396
     40 H11        -2.2992   -0.7430    0.0512 H         1 <0>         0.1341
     41 H12         1.6578   -2.9918    2.3129 H         1 <0>         0.1449
     42 H13         3.0310   -4.1041    4.0324 H         1 <0>         0.1514
     43 H14         2.0607   -5.8981    5.4050 H         1 <0>         0.1749
     44 H15        -4.4904   -4.1368    0.7600 H         1 <0>         0.4063
     45 H16        -6.2744   -6.3244    0.8504 H         1 <0>         0.0840
     46 H17        -6.8017   -5.1207    2.0509 H         1 <0>         0.0839
     47 H18        -7.5669   -2.9234    1.3538 H         1 <0>         0.1356
     48 H19        -8.5983   -1.5858   -0.4374 H         1 <0>         0.1393
     49 H20        -7.3507   -4.4825   -3.3142 H         1 <0>         0.1395
     50 H21        -6.3118   -5.8124   -1.5216 H         1 <0>         0.1358
     51 H22        -2.8686   -6.3256    4.9759 H         1 <0>         0.4086
     52 H23         0.4610   -0.3491   -0.8620 H         1 <0>         0.4240
@<TRIPOS>BOND
     1    1    2 1
     2    1   30 1
     3    1   31 1
     4    1   32 1
     5    2    7 1
     6    2    3 1
     7    2   52 1
     8    3    4 1
     9    3   33 1
    10    3   34 1
    11    4    5 1
    12    4   35 1
    13    4   36 1
    14    5    6 1
    15    5    8 1
    16    6    7 1
    17    6   37 1
    18    6   38 1
    19    7   39 1
    20    7   40 1
    21    8   17 ar
    22    8    9 ar
    23    9   14 ar
    24    9   10 ar
    25   10   11 ar
    26   10   41 1
    27   11   12 ar
    28   11   42 1
    29   12   13 ar
    30   12   43 1
    31   13   14 ar
    32   14   15 ar
    33   15   16 ar
    34   15   29 1
    35   16   17 ar
    36   16   18 1
    37   18   19 2
    38   18   20 am
    39   20   21 1
    40   20   44 1
    41   21   22 1
    42   21   45 1
    43   21   46 1
    44   22   27 ar
    45   22   23 ar
    46   23   24 ar
    47   23   47 1
    48   24   25 ar
    49   24   48 1
    50   25   26 ar
    51   25   28 1
    52   26   27 ar
    53   26   49 1
    54   27   50 1
    55   29   51 1
@<TRIPOS>MOLECULE
CHEMBL441683__1
   51    54     0     0     0
SMALL
USER_CHARGES

@<TRIPOS>ATOM
      1 C1         -0.9519    0.2895   -2.1715 C.3       1 <0>         0.0248
      2 N1         -0.4724   -0.6011   -1.1062 N.3       1 <0>        -0.5401
      3 C2         -0.4644   -2.0003   -1.5536 C.3       1 <0>         0.0388
      4 C3          0.2081   -2.8704   -0.4865 C.3       1 <0>         0.1519
      5 N2         -0.4627   -2.6330    0.8007 N.pl3     1 <0>        -0.6592
      6 C4         -0.6312   -1.2432    1.2517 C.3       1 <0>         0.1518
      7 C5         -1.2706   -0.4371    0.1161 C.3       1 <0>         0.0390
      8 C6         -0.9243   -3.6910    1.5683 C.ar      1 <0>         0.4274
      9 C7         -0.0573   -4.3081    2.5662 C.ar      1 <0>        -0.1314
     10 C8          1.2542   -3.8671    2.7881 C.ar      1 <0>        -0.0306
     11 C9          1.9941   -4.5067    3.7460 C.ar      1 <0>        -0.1651
     12 C10         1.4377   -5.5610    4.4647 C.ar      1 <0>         0.1431
     13 N3          0.2082   -5.9691    4.2511 N.ar      1 <0>        -0.4554
     14 C11        -0.5613   -5.3865    3.3330 C.ar      1 <0>         0.1240
     15 C12        -1.8886   -5.8115    3.0893 C.ar      1 <0>         0.1651
     16 C13        -2.6381   -5.1635    2.1195 C.ar      1 <0>         0.0364
     17 N4         -2.1498   -4.1426    1.4061 N.ar      1 <0>        -0.4632
     18 C14        -4.0216   -5.6112    1.8698 C.2       1 <0>         0.5732
     19 O1         -4.4868   -6.5344    2.5100 O.2       1 <0>        -0.5139
     20 N5         -4.7698   -4.9968    0.9321 N.am      1 <0>        -0.7108
     21 C15        -6.1435   -5.4413    0.6841 C.3       1 <0>         0.1622
     22 C16        -6.7561   -4.5970   -0.4035 C.ar      1 <0>        -0.1211
     23 C17        -7.4305   -3.4348   -0.0784 C.ar      1 <0>        -0.0691
     24 C18        -7.9923   -2.6595   -1.0750 C.ar      1 <0>        -0.1554
     25 C19        -7.8795   -3.0471   -2.3994 C.ar      1 <0>         0.1079
     26 C20        -7.2038   -4.2113   -2.7238 C.ar      1 <0>        -0.1552
     27 C21        -6.6383   -4.9823   -1.7259 C.ar      1 <0>        -0.0689
     28 F1         -8.4287   -2.2902   -3.3745 F         1 <0>        -0.1371
     29 O2         -2.4208   -6.8399    3.7950 O.3       1 <0>        -0.4512
     30 H1         -0.8759    1.3254   -1.8408 H         1 <0>         0.0698
     31 H2         -0.3437    0.1477   -3.0648 H         1 <0>         0.0694
     32 H3         -1.9920    0.0563   -2.3994 H         1 <0>         0.0253
     33 H4         -1.4890   -2.3391   -1.7066 H         1 <0>         0.0401
     34 H5          0.0890   -2.0797   -2.4894 H         1 <0>         0.0832
     35 H6          0.1152   -3.9216   -0.7593 H         1 <0>         0.0733
     36 H7          1.2614   -2.6020   -0.4055 H         1 <0>         0.0686
     37 H8         -1.2789   -1.2185    2.1280 H         1 <0>         0.0730
     38 H9          0.3415   -0.8183    1.4998 H         1 <0>         0.0683
     39 H10        -1.3019    0.6171    0.3913 H         1 <0>         0.0830
     40 H11        -2.2840   -0.7977   -0.0601 H         1 <0>         0.0401
     41 H12         1.6689   -3.0474    2.2202 H         1 <0>         0.1497
     42 H13         3.0087   -4.1938    3.9437 H         1 <0>         0.1472
     43 H14         2.0330   -6.0564    5.2174 H         1 <0>         0.1690
     44 H15        -4.3987   -4.2604    0.4214 H         1 <0>         0.4111
     45 H16        -6.1369   -6.4859    0.3729 H         1 <0>         0.0816
     46 H17        -6.7293   -5.3381    1.5976 H         1 <0>         0.0814
     47 H18        -7.5187   -3.1328    0.9547 H         1 <0>         0.1353
     48 H19        -8.5194   -1.7518   -0.8208 H         1 <0>         0.1384
     49 H20        -7.1155   -4.5148   -3.7565 H         1 <0>         0.1385
     50 H21        -6.1074   -5.8880   -1.9790 H         1 <0>         0.1356
     51 H22        -2.8691   -6.5688    4.6078 H         1 <0>         0.4001
@<TRIPOS>BOND
     1    1    2 1
     2    1   30 1
     3    1   31 1
     4    1   32 1
     5    2    7 1
     6    2    3 1
     7    3    4 1
     8    3   33 1
     9    3   34 1
    10    4    5 1
    11    4   35 1
    12    4   36 1
    13    5    6 1
    14    5    8 1
    15    6    7 1
    16    6   37 1
    17    6   38 1
    18    7   39 1
    19    7   40 1
    20    8   17 ar
    21    8    9 ar
    22    9   14 ar
    23    9   10 ar
    24   10   11 ar
    25   10   41 1
    26   11   12 ar
    27   11   42 1
    28   12   13 ar
    29   12   43 1
    30   13   14 ar
    31   14   15 ar
    32   15   16 ar
    33   15   29 1
    34   16   17 ar
    35   16   18 1
    36   18   19 2
    37   18   20 am
    38   20   21 1
    39   20   44 1
    40   21   22 1
    41   21   45 1
    42   21   46 1
    43   22   27 ar
    44   22   23 ar
    45   23   24 ar
    46   23   47 1
    47   24   25 ar
    48   24   48 1
    49   25   26 ar
    50   25   28 1
    51   26   27 ar
    52   26   49 1
    53   27   50 1
    54   29   51 1
@<TRIPOS>MOLECULE
CHEMBL212982
   46    49     0     0     0
SMALL
USER_CHARGES

@<TRIPOS>ATOM
      1 C1         -0.0178    1.4608    0.0101 C.3       1 <0>         0.0888
      2 N1          0.0021   -0.0041    0.0020 N.pl3     1 <0>        -1.0228
      3 C2          1.2806   -0.7192   -0.0140 C.3       1 <0>         0.0857
      4 S1         -1.4206   -0.8515    0.0111 S.o2      1 <0>         2.7544
      5 O1         -1.1271   -2.1322    0.5522 O.2       1 <0>        -0.9693
      6 O2         -2.4015    0.0076    0.5759 O.2       1 <0>        -0.9718
      7 O3         -1.8211   -1.0740   -1.4404 O.3       1 <0>        -0.6449
      8 C3         -1.0899   -2.0278   -2.0757 C.ar      1 <0>        -0.0583
      9 C4          0.0514   -1.6853   -2.7270 C.ar      1 <0>         0.0165
     10 C5          0.8290   -2.6528   -3.3939 C.ar      1 <0>        -0.3366
     11 C6          0.4324   -3.9874   -3.3936 C.ar      1 <0>         0.3764
     12 C7         -0.7505   -4.3613   -2.7222 C.ar      1 <0>         0.0224
     13 C8         -1.5154   -3.3744   -2.0527 C.ar      1 <0>         0.1761
     14 N2         -2.6338   -3.7292   -1.4121 N.ar      1 <0>        -0.4529
     15 C9         -3.0097   -4.9881   -1.4048 C.ar      1 <0>         0.0936
     16 C10        -2.2524   -5.9615   -2.0595 C.ar      1 <0>         0.0048
     17 N3         -1.1562   -5.6351   -2.7053 N.ar      1 <0>        -0.3677
     18 O4          1.1777   -4.9211   -4.0344 O.3       1 <0>        -0.5843
     19 C11         1.9893   -1.9735   -3.9945 C.2       1 <0>         0.5856
     20 O5          2.8582   -2.5259   -4.6415 O.2       1 <0>        -0.5251
     21 N4          1.9527   -0.6577   -3.7269 N.am      1 <0>        -0.6272
     22 C12         0.7594   -0.3664   -2.9253 C.3       1 <0>         0.1307
     23 C13         2.9450    0.3273   -4.1643 C.3       1 <0>         0.1805
     24 C14         2.5409    0.8868   -5.5039 C.ar      1 <0>        -0.1186
     25 C15         2.9694    0.2733   -6.6663 C.ar      1 <0>        -0.0629
     26 C16         2.5990    0.7852   -7.8954 C.ar      1 <0>        -0.1552
     27 C17         1.7985    1.9129   -7.9624 C.ar      1 <0>         0.0973
     28 C18         1.3699    2.5265   -6.7975 C.ar      1 <0>        -0.1587
     29 C19         1.7372    2.0097   -5.5695 C.ar      1 <0>        -0.0771
     30 F1          1.4362    2.4144   -9.1634 F         1 <0>        -0.1430
     31 H1          1.0048    1.8381    0.0023 H         1 <0>         0.0790
     32 H2         -0.5450    1.8219   -0.8730 H         1 <0>         0.0588
     33 H3         -0.5280    1.8123    0.9069 H         1 <0>         0.0658
     34 H4          1.6074   -0.9021    1.0096 H         1 <0>         0.0594
     35 H5          1.1583   -1.6705   -0.5318 H         1 <0>         0.0778
     36 H6          2.0272   -0.1171   -0.5318 H         1 <0>         0.0743
     37 H7         -3.9135   -5.2730   -0.8868 H         1 <0>         0.1666
     38 H8         -2.5761   -6.9917   -2.0425 H         1 <0>         0.1656
     39 H9          0.1116    0.3302   -3.4574 H         1 <0>         0.0900
     40 H10         1.0488    0.0521   -1.9613 H         1 <0>         0.1039
     41 H11         3.0007    1.1354   -3.4349 H         1 <0>         0.0876
     42 H12         3.9199   -0.1525   -4.2501 H         1 <0>         0.0954
     43 H13         3.5941   -0.6061   -6.6139 H         1 <0>         0.1394
     44 H14         2.9342    0.3060   -8.8034 H         1 <0>         0.1346
     45 H15         0.7457    3.4063   -6.8485 H         1 <0>         0.1337
     46 H16         1.3994    2.4855   -4.6607 H         1 <0>         0.1317
@<TRIPOS>BOND
     1    1    2 1
     2    1   31 1
     3    1   32 1
     4    1   33 1
     5    2    3 1
     6    2    4 1
     7    3   34 1
     8    3   35 1
     9    3   36 1
    10    4    5 2
    11    4    6 2
    12    4    7 1
    13    7    8 1
    14    8   13 ar
    15    8    9 ar
    16    9   22 1
    17    9   10 ar
    18   10   11 ar
    19   10   19 1
    20   11   12 ar
    21   11   18 1
    22   12   17 ar
    23   12   13 ar
    24   13   14 ar
    25   14   15 ar
    26   15   16 ar
    27   15   37 1
    28   16   17 ar
    29   16   38 1
    30   19   20 2
    31   19   21 am
    32   21   22 1
    33   21   23 1
    34   22   39 1
    35   22   40 1
    36   23   24 1
    37   23   41 1
    38   23   42 1
    39   24   29 ar
    40   24   25 ar
    41   25   26 ar
    42   25   43 1
    43   26   27 ar
    44   26   44 1
    45   27   28 ar
    46   27   30 1
    47   28   29 ar
    48   28   45 1
    49   29   46 1
@<TRIPOS>MOLECULE
CHEMBL212982__1
   47    50     0     0     0
SMALL
USER_CHARGES

@<TRIPOS>ATOM
      1 C1         -0.0178    1.4608    0.0101 C.3       1 <0>         0.0752
      2 N1          0.0021   -0.0041    0.0020 N.pl3     1 <0>        -1.0195
      3 C2          0.0241   -0.7433    1.2666 C.3       1 <0>         0.0805
      4 S1         -0.0004   -0.8243   -1.4366 S.o2      1 <0>         2.7624
      5 O1         -0.5312   -2.1147   -1.1675 O.2       1 <0>        -0.9599
      6 O2         -0.5723    0.0488   -2.4009 O.2       1 <0>        -0.9366
      7 O3          1.4527   -1.0274   -1.8413 O.3       1 <0>        -0.6591
      8 C3          2.0959   -1.9898   -1.1284 C.ar      1 <0>         0.1135
      9 C4          2.7445   -1.6639    0.0192 C.ar      1 <0>        -0.0572
     10 C5          3.4194   -2.6406    0.7782 C.ar      1 <0>        -0.1756
     11 C6          3.4297   -3.9674    0.3563 C.ar      1 <0>         0.2658
     12 C7          2.7612   -4.3241   -0.8335 C.ar      1 <0>         0.0545
     13 C8          2.0836   -3.3281   -1.5794 C.ar      1 <0>         0.1284
     14 N2          1.4457   -3.6667   -2.7044 N.ar      1 <0>        -0.4183
     15 C9          1.4485   -4.9183   -3.1043 C.ar      1 <0>         0.1135
     16 C10         2.1112   -5.9006   -2.3656 C.ar      1 <0>         0.0852
     17 N3          2.7545   -5.5900   -1.2635 N.ar      1 <0>        -0.3933
     18 O4          4.0782   -4.9099    1.0835 O.3       1 <0>        -0.4578
     19 C11         4.0147   -1.9788    1.9513 C.2       1 <0>         0.5737
     20 O5          4.6663   -2.5424    2.8095 O.2       1 <0>        -0.4945
     21 N4          3.7365   -0.6646    1.9397 N.am      1 <0>        -0.6064
     22 C12         2.9324   -0.3572    0.7522 C.3       1 <0>         0.1222
     23 C13         4.1661    0.3048    2.9506 C.3       1 <0>         0.1787
     24 C14         5.5011    0.8826    2.5572 C.ar      1 <0>        -0.1337
     25 C15         6.6685    0.2705    2.9739 C.ar      1 <0>        -0.0630
     26 C16         7.8934    0.7992    2.6133 C.ar      1 <0>        -0.1550
     27 C17         7.9511    1.9425    1.8344 C.ar      1 <0>         0.1088
     28 C18         6.7812    2.5547    1.4176 C.ar      1 <0>        -0.1571
     29 C19         5.5575    2.0211    1.7750 C.ar      1 <0>        -0.0742
     30 F1          9.1479    2.4605    1.4817 F         1 <0>        -0.1369
     31 H1          1.0048    1.8381    0.0023 H         1 <0>         0.0603
     32 H2         -0.5450    1.8219   -0.8730 H         1 <0>         0.0886
     33 H3         -0.5280    1.8123    0.9069 H         1 <0>         0.0851
     34 H4         -0.9979   -0.9406    1.5900 H         1 <0>         0.0723
     35 H5          0.5496   -1.6879    1.1262 H         1 <0>         0.0670
     36 H6          0.5371   -0.1514    2.0246 H         1 <0>         0.0828
     37 H7          0.9326   -5.1901   -4.0133 H         1 <0>         0.1912
     38 H8          2.1024   -6.9246   -2.7090 H         1 <0>         0.1912
     39 H9          3.5282   -5.3356    1.7554 H         1 <0>         0.4118
     40 H10         3.4587    0.3559    0.1178 H         1 <0>         0.1113
     41 H11         1.9651    0.0479    1.0495 H         1 <0>         0.1205
     42 H12         3.4302    1.1058    3.0217 H         1 <0>         0.0999
     43 H13         4.2559   -0.1929    3.9162 H         1 <0>         0.1049
     44 H14         6.6233   -0.6211    3.5817 H         1 <0>         0.1387
     45 H15         8.8053    0.3210    2.9392 H         1 <0>         0.1383
     46 H16         6.8250    3.4467    0.8103 H         1 <0>         0.1381
     47 H17         4.6449    2.4960    1.4464 H         1 <0>         0.1334
@<TRIPOS>BOND
     1    1    2 1
     2    1   31 1
     3    1   32 1
     4    1   33 1
     5    2    3 1
     6    2    4 1
     7    3   34 1
     8    3   35 1
     9    3   36 1
    10    4    5 2
    11    4    6 2
    12    4    7 1
    13    7    8 1
    14    8   13 ar
    15    8    9 ar
    16    9   22 1
    17    9   10 ar
    18   10   11 ar
    19   10   19 1
    20   11   12 ar
    21   11   18 1
    22   12   17 ar
    23   12   13 ar
    24   13   14 ar
    25   14   15 ar
    26   15   16 ar
    27   15   37 1
    28   16   17 ar
    29   16   38 1
    30   18   39 1
    31   19   20 2
    32   19   21 am
    33   21   22 1
    34   21   23 1
    35   22   40 1
    36   22   41 1
    37   23   24 1
    38   23   42 1
    39   23   43 1
    40   24   29 ar
    41   24   25 ar
    42   25   26 ar
    43   25   44 1
    44   26   27 ar
    45   26   45 1
    46   27   28 ar
    47   27   30 1
    48   28   29 ar
    49   28   46 1
    50   29   47 1
@<TRIPOS>MOLECULE
CHEMBL190009
   45    46     0     0     0
SMALL
USER_CHARGES

@<TRIPOS>ATOM
      1 C1         -0.0168    1.3913    0.0097 C.ar      1 <0>        -0.1049
      2 C2          1.1726    2.0983    0.0021 C.ar      1 <0>         0.0912
      3 C3          2.3866    1.4192   -0.0131 C.ar      1 <0>         0.0794
      4 C4          2.4080    0.0283   -0.0208 C.ar      1 <0>         0.0937
      5 C5          1.2211   -0.6831   -0.0133 C.ar      1 <0>        -0.1046
      6 C6          0.0021   -0.0041    0.0020 C.ar      1 <0>        -0.0777
      7 C7         -1.2668   -0.7614    0.0106 C.2       1 <0>         0.0722
      8 C8         -1.2476   -2.0873    0.0033 C.2       1 <0>        -0.7492
      9 S1         -2.7606   -2.9903    0.0134 S.o2      1 <0>         2.5120
     10 O1         -2.6184   -3.9239    1.0752 O.2       1 <0>        -0.9115
     11 O2         -3.7756   -1.9967    0.0535 O.2       1 <0>        -0.9156
     12 C9         -2.7969   -3.8569   -1.5798 C.3       1 <0>        -1.1601
     13 S2         -1.4443   -5.0640   -1.6426 S.o2      1 <0>         2.5110
     14 O3         -1.4975   -5.7957   -2.8596 O.2       1 <0>        -0.9144
     15 O4         -0.2313   -4.4627   -1.2112 O.2       1 <0>        -0.9093
     16 C10        -1.8313   -6.2431   -0.3918 C.2       1 <0>        -0.7485
     17 C11        -2.1078   -7.4965   -0.7248 C.2       1 <0>         0.0715
     18 C12        -2.4323   -8.4854    0.3242 C.ar      1 <0>        -0.0771
     19 C13        -2.4537   -8.1001    1.6652 C.ar      1 <0>        -0.1049
     20 C14        -2.7578   -9.0279    2.6458 C.ar      1 <0>         0.0934
     21 C15        -3.0421  -10.3438    2.2956 C.ar      1 <0>         0.0792
     22 C16        -3.0214  -10.7303    0.9595 C.ar      1 <0>         0.0915
     23 C17        -2.7234   -9.8047   -0.0251 C.ar      1 <0>        -0.1050
     24 O5         -3.2997  -12.0175    0.6201 O.3       1 <0>        -0.4808
     25 O6         -3.3403  -11.2543    3.2615 O.3       1 <0>        -0.4740
     26 O7         -2.7783   -8.6530    3.9530 O.3       1 <0>        -0.4803
     27 O8          3.5964   -0.6328   -0.0361 O.3       1 <0>        -0.4800
     28 O9          3.5548    2.1165   -0.0210 O.3       1 <0>        -0.4740
     29 O10         1.1548    3.4581    0.0092 O.3       1 <0>        -0.4811
     30 H1         -0.9591    1.9189    0.0260 H         1 <0>         0.1475
     31 H2          1.2382   -1.7629   -0.0192 H         1 <0>         0.1529
     32 H3         -2.2098   -0.2351    0.0227 H         1 <0>         0.1532
     33 H4         -0.3046   -2.6136   -0.0089 H         1 <0>         0.1927
     34 H5         -3.7504   -4.3734   -1.6907 H         1 <0>         0.2084
     35 H6         -2.6782   -3.1357   -2.3884 H         1 <0>         0.2088
     36 H7         -1.8433   -5.9450    0.6462 H         1 <0>         0.1925
     37 H8         -2.0958   -7.7946   -1.7628 H         1 <0>         0.1533
     38 H9         -2.2327   -7.0786    1.9376 H         1 <0>         0.1528
     39 H10        -2.7119  -10.1041   -1.0627 H         1 <0>         0.1476
     40 H11        -4.2366  -12.1855    0.4496 H         1 <0>         0.3920
     41 H12        -4.2830  -11.3134    3.4687 H         1 <0>         0.3892
     42 H13        -3.6407   -8.3401    4.2589 H         1 <0>         0.3927
     43 H14         3.9488   -0.8288    0.8428 H         1 <0>         0.3928
     44 H15         3.9011    2.3136    0.8601 H         1 <0>         0.3894
     45 H16         1.1579    3.8470    0.8945 H         1 <0>         0.3923
@<TRIPOS>BOND
     1    1    6 ar
     2    1    2 ar
     3    1   30 1
     4    2    3 ar
     5    2   29 1
     6    3    4 ar
     7    3   28 1
     8    4    5 ar
     9    4   27 1
    10    5    6 ar
    11    5   31 1
    12    6    7 1
    13    7    8 2
    14    7   32 1
    15    8    9 1
    16    8   33 1
    17    9   10 2
    18    9   11 2
    19    9   12 1
    20   12   13 1
    21   12   34 1
    22   12   35 1
    23   13   14 2
    24   13   15 2
    25   13   16 1
    26   16   17 2
    27   16   36 1
    28   17   18 1
    29   17   37 1
    30   18   23 ar
    31   18   19 ar
    32   19   20 ar
    33   19   38 1
    34   20   21 ar
    35   20   26 1
    36   21   22 ar
    37   21   25 1
    38   22   23 ar
    39   22   24 1
    40   23   39 1
    41   24   40 1
    42   25   41 1
    43   26   42 1
    44   27   43 1
    45   28   44 1
    46   29   45 1
@<TRIPOS>MOLECULE
CHEMBL143614
   31    32     0     0     0
SMALL
USER_CHARGES

@<TRIPOS>ATOM
      1 C1         -0.0167    1.3781    0.0096 C.ar      1 <0>        -0.1226
      2 C2          1.1709    2.0855    0.0021 C.ar      1 <0>        -0.1196
      3 C3          2.3773    1.4107   -0.0130 C.ar      1 <0>        -0.1124
      4 C4          2.3960    0.0285   -0.0201 C.ar      1 <0>        -0.0809
      5 C5          1.2084   -0.6789   -0.0117 C.ar      1 <0>        -0.1093
      6 C6          0.0021   -0.0041    0.0020 C.ar      1 <0>        -0.1182
      7 C7          3.7112   -0.7071   -0.0376 C.3       1 <0>         0.0072
      8 C8          4.1644   -0.9594    1.3773 C.2       1 <0>        -0.1843
      9 C9          3.9053   -2.0231    2.1615 C.2       1 <0>        -0.0999
     10 C10         4.4828   -1.9834    3.4854 C.2       1 <0>        -0.2082
     11 C11         5.2329   -0.8675    3.8024 C.2       1 <0>        -0.1911
     12 S1          5.1782    0.0724    2.4137 S.3       1 <0>         0.1759
     13 C12         4.2825   -3.0715    4.4435 C.2       1 <0>         0.3976
     14 O1          3.6175   -4.0381    4.1336 O.2       1 <0>        -0.4227
     15 C13         4.9022   -2.9915    5.8149 C.3       1 <0>        -0.2092
     16 C14         4.5470   -4.2281    6.5996 C.2       1 <0>         0.2901
     17 O2          3.8613   -5.0859    6.0970 O.2       1 <0>        -0.4214
     18 C15         5.0428   -4.3929    7.9987 C.2       1 <0>         0.4696
     19 O3          4.7552   -5.3943    8.6341 O.co2     1 <0>        -0.6520
     20 O4          5.7358   -3.5260    8.5066 O.co2     1 <0>        -0.6696
     21 H1         -0.9591    1.9053    0.0259 H         1 <0>         0.1203
     22 H2          1.1563    3.1654    0.0076 H         1 <0>         0.1216
     23 H3          3.3051    1.9634   -0.0196 H         1 <0>         0.1218
     24 H4          1.2231   -1.7588   -0.0176 H         1 <0>         0.1226
     25 H5         -0.9258   -0.5567    0.0082 H         1 <0>         0.1219
     26 H6          3.5884   -1.6586   -0.5549 H         1 <0>         0.0952
     27 H7          4.4573   -0.1052   -0.5563 H         1 <0>         0.0888
     28 H8          3.3035   -2.8533    1.8224 H         1 <0>         0.1451
     29 H9          5.7414   -0.6514    4.7304 H         1 <0>         0.1967
     30 H10         5.9857   -2.9200    5.7204 H         1 <0>         0.1236
     31 H11         4.5238   -2.1108    6.3338 H         1 <0>         0.1233
@<TRIPOS>BOND
     1    1    6 ar
     2    1    2 ar
     3    1   21 1
     4    2    3 ar
     5    2   22 1
     6    3    4 ar
     7    3   23 1
     8    4    5 ar
     9    4    7 1
    10    5    6 ar
    11    5   24 1
    12    6   25 1
    13    7    8 1
    14    7   26 1
    15    7   27 1
    16    8   12 1
    17    8    9 2
    18    9   10 1
    19    9   28 1
    20   10   11 2
    21   10   13 1
    22   11   12 1
    23   11   29 1
    24   13   14 2
    25   13   15 1
    26   15   16 1
    27   15   30 1
    28   15   31 1
    29   16   17 2
    30   16   18 1
    31   18   19 2
    32   18   20 1
@<TRIPOS>MOLECULE
CHEMBL377501
   48    50     0     0     0
SMALL
USER_CHARGES

@<TRIPOS>ATOM
      1 C1          0.0220    1.3965   -0.0317 C.ar      1 <0>        -0.0665
      2 C2          1.2105    2.1013   -0.0557 C.ar      1 <0>        -0.1532
      3 C3          2.4170    1.4225   -0.0777 C.ar      1 <0>         0.1004
      4 C4          2.4313    0.0380   -0.0757 C.ar      1 <0>        -0.1549
      5 C5          1.2416   -0.6648   -0.0518 C.ar      1 <0>        -0.0721
      6 C6          0.0375    0.0141   -0.0297 C.ar      1 <0>        -0.1237
      7 C7         -1.2592   -0.7533   -0.0036 C.3       1 <0>         0.1349
      8 N1         -1.7059   -1.0043   -1.3761 N.pl3     1 <0>        -0.4900
      9 C8         -2.4959   -0.0985   -1.9676 C.2       1 <0>         0.1361
     10 C9         -2.9610   -0.2577   -3.2582 C.2       1 <0>        -0.2516
     11 C10        -2.5746   -1.4649   -4.0083 C.2       1 <0>         0.4108
     12 O1         -2.9573   -1.6534   -5.1494 O.2       1 <0>        -0.4250
     13 C11        -1.7037   -2.4359   -3.3183 C.ar      1 <0>        -0.2032
     14 C12        -1.2911   -2.1564   -2.0015 C.ar      1 <0>         0.2262
     15 C13        -0.4634   -3.0610   -1.3355 C.ar      1 <0>        -0.2043
     16 C14        -0.0523   -4.2033   -1.9550 C.ar      1 <0>        -0.0206
     17 C15        -0.4528   -4.4893   -3.2694 C.ar      1 <0>        -0.2162
     18 C16        -1.2899   -3.6035   -3.9499 C.ar      1 <0>         0.0346
     19 C17        -0.0013   -5.7254   -3.9240 C.2       1 <0>         0.3860
     20 C18         0.8925   -6.6868   -3.1839 C.3       1 <0>        -0.2083
     21 C19         1.2080   -7.8637   -4.0708 C.2       1 <0>         0.2872
     22 O2          0.7538   -7.9162   -5.1887 O.2       1 <0>        -0.4173
     23 C20         2.0822   -8.9650   -3.5674 C.2       1 <0>         0.4716
     24 O3          2.3377   -9.9180   -4.2857 O.co2     1 <0>        -0.6586
     25 O4          2.5411   -8.9119   -2.4378 O.co2     1 <0>        -0.6730
     26 O5         -0.3480   -5.9715   -5.0599 O.2       1 <0>        -0.4208
     27 C21        -3.8274    0.7600   -3.8725 C.2       1 <0>         0.4032
     28 C22        -4.2116    0.6418   -5.2864 C.2       1 <0>        -0.4923
     29 C23        -4.9196    1.6291   -5.8793 C.2       1 <0>         0.2336
     30 O6         -5.2750    2.7267   -5.1707 O.3       1 <0>        -0.6722
     31 C24        -5.3063    1.5101   -7.3026 C.2       1 <0>         0.4884
     32 O7         -4.9855    0.5190   -7.9424 O.co2     1 <0>        -0.7052
     33 O8         -5.9466    2.4028   -7.8387 O.co2     1 <0>        -0.7112
     34 O9         -4.2263    1.7001   -3.2100 O.2       1 <0>        -0.5402
     35 F1          3.5795    2.1105   -0.1016 F         1 <0>        -0.1431
     36 H1         -0.9191    1.9258   -0.0100 H         1 <0>         0.1384
     37 H2          1.1981    3.1813   -0.0575 H         1 <0>         0.1365
     38 H3          3.3718   -0.4926   -0.0933 H         1 <0>         0.1363
     39 H4          1.2525   -1.7447   -0.0506 H         1 <0>         0.1389
     40 H5         -1.1088   -1.7035    0.5090 H         1 <0>         0.1042
     41 H6         -2.0151   -0.1716    0.5239 H         1 <0>         0.1042
     42 H7         -2.7788    0.7861   -1.4165 H         1 <0>         0.1639
     43 H8         -0.1464   -2.8546   -0.3239 H         1 <0>         0.1328
     44 H9          0.5886   -4.8955   -1.4290 H         1 <0>         0.1381
     45 H10        -1.6028   -3.8167   -4.9613 H         1 <0>         0.1493
     46 H11         1.8181   -6.1824   -2.9066 H         1 <0>         0.1225
     47 H12        -3.9281   -0.2337   -5.8516 H         1 <0>         0.1226
     48 H13         0.3852   -7.0355   -2.2844 H         1 <0>         0.1226
@<TRIPOS>BOND
     1    1    6 ar
     2    1    2 ar
     3    1   36 1
     4    2    3 ar
     5    2   37 1
     6    3    4 ar
     7    3   35 1
     8    4    5 ar
     9    4   38 1
    10    5    6 ar
    11    5   39 1
    12    6    7 1
    13    7    8 1
    14    7   40 1
    15    7   41 1
    16    8   14 1
    17    8    9 1
    18    9   10 2
    19    9   42 1
    20   10   11 1
    21   10   27 1
    22   11   12 2
    23   11   13 1
    24   13   18 ar
    25   13   14 ar
    26   14   15 ar
    27   15   16 ar
    28   15   43 1
    29   16   17 ar
    30   16   44 1
    31   17   18 ar
    32   17   19 1
    33   18   45 1
    34   19   20 1
    35   19   26 2
    36   20   21 1
    37   20   46 1
    38   20   48 1
    39   21   22 2
    40   21   23 1
    41   23   24 2
    42   23   25 1
    43   27   28 1
    44   27   34 2
    45   28   29 2
    46   28   47 1
    47   29   30 1
    48   29   31 1
    49   31   32 2
    50   31   33 1
@<TRIPOS>MOLECULE
CHEMBL204751
   61    63     0     0     0
SMALL
USER_CHARGES

@<TRIPOS>ATOM
      1 C1          0.0113    1.5233    0.0317 C.3       1 <0>        -0.1482
      2 C2          0.0203   -0.0066    0.0160 C.3       1 <0>         0.0515
      3 O1          0.6950   -0.4670   -1.1565 O.3       1 <0>        -0.3368
      4 C3          0.7908   -1.8004   -1.3232 C.2       1 <0>         0.4716
      5 O2          0.3150   -2.5513   -0.4963 O.2       1 <0>        -0.5248
      6 C4          1.4766   -2.3502   -2.5150 C.2       1 <0>         0.2656
      7 O3          2.0069   -1.5133   -3.4365 O.3       1 <0>        -0.6197
      8 C5          1.5729   -3.6895   -2.6824 C.2       1 <0>        -0.4542
      9 C6          2.2521   -4.2341   -3.8627 C.2       1 <0>         0.4210
     10 C7          2.3572   -5.6959   -4.0454 C.ar      1 <0>        -0.1648
     11 C8          1.8028   -6.5635   -3.0939 C.ar      1 <0>        -0.0235
     12 C9          1.8913   -7.9149   -3.2489 C.ar      1 <0>        -0.1976
     13 C10         2.5379   -8.4557   -4.3611 C.ar      1 <0>         0.1986
     14 C11         3.0978   -7.5931   -5.3221 C.ar      1 <0>        -0.1972
     15 C12         3.0023   -6.2139   -5.1666 C.ar      1 <0>         0.0119
     16 C13         3.7776   -8.1825   -6.4915 C.2       1 <0>         0.4252
     17 O4          4.2801   -7.4833   -7.3533 O.2       1 <0>        -0.4525
     18 C14         3.8232   -9.6522   -6.5718 C.2       1 <0>        -0.3042
     19 C15         3.2366  -10.3924   -5.5648 C.2       1 <0>         0.1873
     20 N1          2.6285   -9.8189   -4.5178 N.pl3     1 <0>        -0.4887
     21 C16         2.0331  -10.6822   -3.4949 C.3       1 <0>         0.1334
     22 C17         0.6007  -10.9777   -3.8585 C.ar      1 <0>        -0.1263
     23 C18        -0.4096  -10.1424   -3.4197 C.ar      1 <0>        -0.0695
     24 C19        -1.7235  -10.4120   -3.7529 C.ar      1 <0>        -0.1537
     25 C20        -2.0276  -11.5193   -4.5266 C.ar      1 <0>         0.1030
     26 C21        -1.0148  -12.3552   -4.9655 C.ar      1 <0>        -0.1544
     27 C22         0.2988  -12.0806   -4.6354 C.ar      1 <0>        -0.0686
     28 F1         -3.3117  -11.7842   -4.8525 F         1 <0>        -0.1416
     29 C23         4.4818  -10.3200   -7.7056 C.2       1 <0>         0.4440
     30 C24         4.9893   -9.5260   -8.8311 C.2       1 <0>        -0.4444
     31 C25         5.4994  -10.1452   -9.9198 C.2       1 <0>         0.2558
     32 O5          5.5419  -11.4971   -9.9718 O.3       1 <0>        -0.6405
     33 C26         6.0112   -9.3444  -11.0548 C.2       1 <0>         0.4669
     34 O6          5.9730   -8.1317  -11.0082 O.2       1 <0>        -0.5149
     35 O7          6.5192   -9.9612  -12.1394 O.3       1 <0>        -0.3407
     36 C27         6.9950   -9.1264  -13.1971 C.3       1 <0>         0.0501
     37 C28         7.5307   -9.9990  -14.3340 C.3       1 <0>        -0.1462
     38 O8          4.6058  -11.5312   -7.7103 O.2       1 <0>        -0.5056
     39 O9          2.7290   -3.4815   -4.6915 O.2       1 <0>        -0.4759
     40 H1          1.0368    1.8926    0.0340 H         1 <0>         0.0645
     41 H2         -0.5059    1.8927   -0.8538 H         1 <0>         0.0645
     42 H3         -0.5033    1.8744    0.9261 H         1 <0>         0.0695
     43 H4          0.5375   -0.3760    0.9015 H         1 <0>         0.0586
     44 H5         -1.0052   -0.3760    0.0137 H         1 <0>         0.0585
     45 H6          1.1496   -4.3575   -1.9468 H         1 <0>         0.1009
     46 H7          1.3006   -6.1568   -2.2286 H         1 <0>         0.1395
     47 H8          1.4592   -8.5703   -2.5071 H         1 <0>         0.1295
     48 H9          3.4279   -5.5511   -5.9055 H         1 <0>         0.1471
     49 H10         3.2695  -11.4704   -5.6227 H         1 <0>         0.1654
     50 H11         2.5930  -11.6155   -3.4364 H         1 <0>         0.1050
     51 H12         2.0661  -10.1775   -2.5294 H         1 <0>         0.1072
     52 H13        -0.1722   -9.2789   -2.8160 H         1 <0>         0.1400
     53 H14        -2.5127   -9.7596   -3.4097 H         1 <0>         0.1374
     54 H15        -1.2509  -13.2194   -5.5687 H         1 <0>         0.1368
     55 H16         1.0894  -12.7299   -4.9814 H         1 <0>         0.1371
     56 H17         4.9554   -8.4473   -8.7896 H         1 <0>         0.1363
     57 H18         6.1773   -8.5082  -13.5679 H         1 <0>         0.0580
     58 H19         7.7939   -8.4860  -12.8232 H         1 <0>         0.0580
     59 H20         8.3483  -10.6171  -13.9632 H         1 <0>         0.0631
     60 H21         6.7317  -10.6393  -14.7079 H         1 <0>         0.0630
     61 H22         7.8936   -9.3622  -15.1407 H         1 <0>         0.0684
@<TRIPOS>BOND
     1    1    2 1
     2    1   40 1
     3    1   41 1
     4    1   42 1
     5    2    3 1
     6    2   43 1
     7    2   44 1
     8    3    4 1
     9    4    5 2
    10    4    6 1
    11    6    7 1
    12    6    8 2
    13    8    9 1
    14    8   45 1
    15    9   10 1
    16    9   39 2
    17   10   15 ar
    18   10   11 ar
    19   11   12 ar
    20   11   46 1
    21   12   13 ar
    22   12   47 1
    23   13   20 1
    24   13   14 ar
    25   14   15 ar
    26   14   16 1
    27   15   48 1
    28   16   17 2
    29   16   18 1
    30   18   19 2
    31   18   29 1
    32   19   20 1
    33   19   49 1
    34   20   21 1
    35   21   22 1
    36   21   50 1
    37   21   51 1
    38   22   27 ar
    39   22   23 ar
    40   23   24 ar
    41   23   52 1
    42   24   25 ar
    43   24   53 1
    44   25   26 ar
    45   25   28 1
    46   26   27 ar
    47   26   54 1
    48   27   55 1
    49   29   30 1
    50   29   38 2
    51   30   31 2
    52   30   56 1
    53   31   32 1
    54   31   33 1
    55   33   34 2
    56   33   35 1
    57   35   36 1
    58   36   37 1
    59   36   57 1
    60   36   58 1
    61   37   59 1
    62   37   60 1
    63   37   61 1
@<TRIPOS>MOLECULE
CHEMBL204751__1
   62    64     0     0     0
SMALL
USER_CHARGES

@<TRIPOS>ATOM
      1 C1         -0.0636    1.5218    0.0329 C.3       1 <0>        -0.1537
      2 C2         -0.0289   -0.0077    0.0168 C.3       1 <0>         0.0550
      3 O1          0.6592   -0.4808    1.1765 O.3       1 <0>        -0.3301
      4 C3          0.7781   -1.8142    1.3150 C.2       1 <0>         0.4284
      5 O2          0.3113   -2.5550    0.4759 O.2       1 <0>        -0.4739
      6 C4          1.4835   -2.3806    2.4997 C.2       1 <0>         0.3633
      7 O3          1.9483   -1.6428    3.3354 O.2       1 <0>        -0.3422
      8 C5          1.6166   -3.8737    2.6548 C.3       1 <0>        -0.1948
      9 C6          2.3649   -4.1819    3.9260 C.2       1 <0>         0.3961
     10 C7          2.6256   -5.5778    4.3052 C.ar      1 <0>        -0.2203
     11 C8          2.1830   -6.6247    3.4810 C.ar      1 <0>        -0.0195
     12 C9          2.4176   -7.9234    3.8201 C.ar      1 <0>        -0.1954
     13 C10         3.1036   -8.2325    4.9957 C.ar      1 <0>         0.2330
     14 C11         3.5519   -7.1908    5.8296 C.ar      1 <0>        -0.2027
     15 C12         3.3184   -5.8645    5.4822 C.ar      1 <0>         0.0427
     16 C13         4.2752   -7.5373    7.0682 C.2       1 <0>         0.4223
     17 O4          4.6851   -6.6763    7.8265 O.2       1 <0>        -0.4418
     18 C14         4.4800   -8.9684    7.3485 C.2       1 <0>        -0.2831
     19 C15         3.9926   -9.8985    6.4524 C.2       1 <0>         0.1768
     20 N1          3.3397   -9.5430    5.3377 N.pl3     1 <0>        -0.4859
     21 C16         2.8568  -10.5978    4.4429 C.3       1 <0>         0.1314
     22 C17         3.9225  -10.9224    3.4280 C.ar      1 <0>        -0.1324
     23 C18         3.9656  -10.2366    2.2283 C.ar      1 <0>        -0.0726
     24 C19         4.9426  -10.5331    1.2970 C.ar      1 <0>        -0.1552
     25 C20         5.8786  -11.5174    1.5658 C.ar      1 <0>         0.1087
     26 C21         5.8344  -12.2036    2.7676 C.ar      1 <0>        -0.1513
     27 C22         4.8596  -11.9017    3.6996 C.ar      1 <0>        -0.0654
     28 F1          6.8339  -11.8084    0.6559 F         1 <0>        -0.1380
     29 C23         5.1921   -9.3993    8.5621 C.2       1 <0>         0.4371
     30 C24         5.8151   -8.4020    9.4406 C.2       1 <0>        -0.4515
     31 C25         6.5581   -8.8019   10.4975 C.2       1 <0>         0.2625
     32 O5          6.7274  -10.1218   10.7451 O.3       1 <0>        -0.6297
     33 C26         7.1863   -7.7961   11.3835 C.2       1 <0>         0.4678
     34 O6          7.0345   -6.6121   11.1614 O.2       1 <0>        -0.5165
     35 O7          7.9265   -8.1944   12.4363 O.3       1 <0>        -0.3389
     36 C27         8.5030   -7.1700   13.2488 C.3       1 <0>         0.0512
     37 C28         9.3018   -7.8100   14.3860 C.3       1 <0>        -0.1475
     38 O8          5.2646  -10.5830    8.8374 O.2       1 <0>        -0.4984
     39 O9          2.7519   -3.2782    4.6362 O.2       1 <0>        -0.4161
     40 H1          0.9556    1.9083    0.0335 H         1 <0>         0.0690
     41 H2         -0.5885    1.8826   -0.8517 H         1 <0>         0.0820
     42 H3         -0.5826    1.8641    0.9282 H         1 <0>         0.0690
     43 H4         -1.0481   -0.3943    0.0162 H         1 <0>         0.0723
     44 H5          0.4901   -0.3500   -0.8785 H         1 <0>         0.0723
     45 H6          0.6251   -4.3242    2.6984 H         1 <0>         0.1448
     46 H7          1.6508   -6.3983    2.5690 H         1 <0>         0.1390
     47 H8          2.0706   -8.7178    3.1760 H         1 <0>         0.1400
     48 H9          3.6658   -5.0646    6.1191 H         1 <0>         0.1525
     49 H10         4.1425  -10.9484    6.6568 H         1 <0>         0.1722
     50 H11         2.6253  -11.4900    5.0246 H         1 <0>         0.1109
     51 H12         1.9583  -10.2555    3.9295 H         1 <0>         0.1085
     52 H13         3.2352   -9.4691    2.0188 H         1 <0>         0.1364
     53 H14         4.9759   -9.9975    0.3598 H         1 <0>         0.1378
     54 H15         6.5638  -12.9717    2.9782 H         1 <0>         0.1401
     55 H16         4.8277  -12.4337    4.6390 H         1 <0>         0.1391
     56 H17         5.6800   -7.3488    9.2431 H         1 <0>         0.1346
     57 H18         9.1659   -6.5541   12.6409 H         1 <0>         0.0586
     58 H19         7.7109   -6.5484   13.6661 H         1 <0>         0.0588
     59 H20         8.6389   -8.4258   14.9938 H         1 <0>         0.0641
     60 H21        10.0939   -8.4316   13.9686 H         1 <0>         0.0640
     61 H22         9.7415   -7.0286   15.0057 H         1 <0>         0.0702
     62 H23         2.1632   -4.2800    1.8038 H         1 <0>         0.1446
@<TRIPOS>BOND
     1    1    2 1
     2    1   40 1
     3    1   41 1
     4    1   42 1
     5    2    3 1
     6    2   43 1
     7    2   44 1
     8    3    4 1
     9    4    5 2
    10    4    6 1
    11    6    7 2
    12    6    8 1
    13    8    9 1
    14    8   45 1
    15    8   62 1
    16    9   10 1
    17    9   39 2
    18   10   15 ar
    19   10   11 ar
    20   11   12 ar
    21   11   46 1
    22   12   13 ar
    23   12   47 1
    24   13   20 1
    25   13   14 ar
    26   14   15 ar
    27   14   16 1
    28   15   48 1
    29   16   17 2
    30   16   18 1
    31   18   19 2
    32   18   29 1
    33   19   20 1
    34   19   49 1
    35   20   21 1
    36   21   22 1
    37   21   50 1
    38   21   51 1
    39   22   27 ar
    40   22   23 ar
    41   23   24 ar
    42   23   52 1
    43   24   25 ar
    44   24   53 1
    45   25   26 ar
    46   25   28 1
    47   26   27 ar
    48   26   54 1
    49   27   55 1
    50   29   30 1
    51   29   38 2
    52   30   31 2
    53   30   56 1
    54   31   32 1
    55   31   33 1
    56   33   34 2
    57   33   35 1
    58   35   36 1
    59   36   37 1
    60   36   57 1
    61   36   58 1
    62   37   59 1
    63   37   60 1
    64   37   61 1
@<TRIPOS>MOLECULE
CHEMBL378395
   55    59     0     0     0
SMALL
USER_CHARGES

@<TRIPOS>ATOM
      1 C1         -0.0187    1.5258    0.0104 C.3       1 <0>        -0.1522
      2 C2          0.0021   -0.0041    0.0020 C.3       1 <0>         0.0628
      3 O1         -1.3386   -0.4987    0.0122 O.3       1 <0>        -0.3492
      4 C3         -1.4970   -1.8370    0.0065 C.2       1 <0>         0.4981
      5 O2         -0.5234   -2.5640   -0.0067 O.2       1 <0>        -0.4810
      6 C4         -2.8512   -2.4188    0.0163 C.ar      1 <0>        -0.1106
      7 C5         -3.9731   -1.5881    0.0257 C.ar      1 <0>        -0.0599
      8 C6         -5.2374   -2.1380    0.0349 C.ar      1 <0>        -0.1238
      9 C7         -5.4050   -3.5138    0.0353 C.ar      1 <0>        -0.0790
     10 C8         -4.3093   -4.3519    0.0261 C.ar      1 <0>        -0.1125
     11 C9         -3.0224   -3.8167    0.0104 C.ar      1 <0>         0.0092
     12 C10        -1.8449   -4.7106   -0.0062 C.ar      1 <0>        -0.0057
     13 C11        -1.2458   -5.1703    1.2453 C.ar      1 <0>        -0.0392
     14 C12        -1.7651   -4.7811    2.4894 C.ar      1 <0>        -0.0636
     15 C13        -1.1534   -5.2505    3.6190 C.ar      1 <0>        -0.1544
     16 C14        -0.0473   -6.0903    3.5092 C.ar      1 <0>         0.1245
     17 N1          0.4324   -6.4493    2.3434 N.ar      1 <0>        -0.4492
     18 C15        -0.1203   -6.0252    1.2031 C.ar      1 <0>         0.1008
     19 C16         0.4045   -6.4187   -0.0468 C.ar      1 <0>         0.2285
     20 C17        -0.1779   -5.9713   -1.2313 C.ar      1 <0>        -0.1744
     21 C18        -1.3001   -5.1267   -1.2022 C.ar      1 <0>        -0.0521
     22 C19        -1.6648   -4.8530   -2.6410 C.3       1 <0>         0.1479
     23 N2         -0.6949   -5.5917   -3.4566 N.am      1 <0>        -0.6108
     24 C20         0.1650   -6.2260   -2.6427 C.2       1 <0>         0.5700
     25 O3          1.0869   -6.9248   -3.0171 O.2       1 <0>        -0.5081
     26 C21        -0.6610   -5.6214   -4.9209 C.3       1 <0>         0.1788
     27 C22         0.2098   -4.5000   -5.4261 C.ar      1 <0>        -0.1287
     28 C23        -0.3434   -3.2607   -5.6889 C.ar      1 <0>        -0.0746
     29 C24         0.4543   -2.2314   -6.1518 C.ar      1 <0>        -0.1577
     30 C25         1.8081   -2.4419   -6.3523 C.ar      1 <0>         0.1059
     31 C26         2.3610   -3.6837   -6.0886 C.ar      1 <0>        -0.1547
     32 C27         1.5623   -4.7099   -5.6208 C.ar      1 <0>        -0.0634
     33 F1          2.5888   -1.4366   -6.8051 F         1 <0>        -0.1381
     34 O4          1.4824   -7.2369   -0.0953 O.3       1 <0>        -0.4671
     35 H1          1.0039    1.9031    0.0027 H         1 <0>         0.0812
     36 H2         -0.5459    1.8868   -0.8726 H         1 <0>         0.0673
     37 H3         -0.5289    1.8773    0.9072 H         1 <0>         0.0674
     38 H4          0.5123   -0.3556   -0.8948 H         1 <0>         0.0682
     39 H5          0.5293   -0.3651    0.8851 H         1 <0>         0.0681
     40 H6         -3.8507   -0.5150    0.0261 H         1 <0>         0.1426
     41 H7         -6.1031   -1.4923    0.0421 H         1 <0>         0.1361
     42 H8         -6.4004   -3.9327    0.0433 H         1 <0>         0.1361
     43 H9         -4.4488   -5.4228    0.0266 H         1 <0>         0.1371
     44 H10        -2.6235   -4.1288    2.5532 H         1 <0>         0.1391
     45 H11        -1.5265   -4.9707    4.5931 H         1 <0>         0.1438
     46 H12         0.4275   -6.4548    4.4081 H         1 <0>         0.1658
     47 H13        -2.6746   -5.2086   -2.8458 H         1 <0>         0.0982
     48 H14        -1.5935   -3.7854   -2.8491 H         1 <0>         0.0906
     49 H15        -0.2548   -6.5759   -5.2556 H         1 <0>         0.1003
     50 H16        -1.6718   -5.5001   -5.3103 H         1 <0>         0.0967
     51 H17        -1.3994   -3.0968   -5.5329 H         1 <0>         0.1318
     52 H18         0.0219   -1.2634   -6.3574 H         1 <0>         0.1365
     53 H19         3.4168   -3.8491   -6.2449 H         1 <0>         0.1377
     54 H20         1.9942   -5.6773   -5.4109 H         1 <0>         0.1382
     55 H21         1.2614   -8.1781   -0.1122 H         1 <0>         0.4003
@<TRIPOS>BOND
     1    1    2 1
     2    1   35 1
     3    1   36 1
     4    1   37 1
     5    2    3 1
     6    2   38 1
     7    2   39 1
     8    3    4 1
     9    4    5 2
    10    4    6 1
    11    6   11 ar
    12    6    7 ar
    13    7    8 ar
    14    7   40 1
    15    8    9 ar
    16    8   41 1
    17    9   10 ar
    18    9   42 1
    19   10   11 ar
    20   10   43 1
    21   11   12 1
    22   12   21 ar
    23   12   13 ar
    24   13   18 ar
    25   13   14 ar
    26   14   15 ar
    27   14   44 1
    28   15   16 ar
    29   15   45 1
    30   16   17 ar
    31   16   46 1
    32   17   18 ar
    33   18   19 ar
    34   19   20 ar
    35   19   34 1
    36   20   24 1
    37   20   21 ar
    38   21   22 1
    39   22   23 1
    40   22   47 1
    41   22   48 1
    42   23   24 am
    43   23   26 1
    44   24   25 2
    45   26   27 1
    46   26   49 1
    47   26   50 1
    48   27   32 ar
    49   27   28 ar
    50   28   29 ar
    51   28   51 1
    52   29   30 ar
    53   29   52 1
    54   30   31 ar
    55   30   33 1
    56   31   32 ar
    57   31   53 1
    58   32   54 1
    59   34   55 1
@<TRIPOS>MOLECULE
CHEMBL378395__1
   54    58     0     0     0
SMALL
USER_CHARGES

@<TRIPOS>ATOM
      1 C1         -0.0187    1.5258    0.0104 C.3       1 <0>        -0.1486
      2 C2          0.0021   -0.0041    0.0020 C.3       1 <0>         0.0620
      3 O1         -1.3386   -0.4987    0.0122 O.3       1 <0>        -0.3595
      4 C3         -1.4970   -1.8370    0.0065 C.2       1 <0>         0.4904
      5 O2         -0.5234   -2.5640   -0.0067 O.2       1 <0>        -0.4570
      6 C4         -2.8512   -2.4188    0.0163 C.ar      1 <0>        -0.1212
      7 C5         -3.9731   -1.5881    0.0257 C.ar      1 <0>        -0.0675
      8 C6         -5.2374   -2.1380    0.0349 C.ar      1 <0>        -0.1460
      9 C7         -5.4050   -3.5138    0.0353 C.ar      1 <0>        -0.0870
     10 C8         -4.3093   -4.3519    0.0261 C.ar      1 <0>        -0.1247
     11 C9         -3.0224   -3.8167    0.0104 C.ar      1 <0>         0.0731
     12 C10        -1.8449   -4.7106   -0.0062 C.ar      1 <0>        -0.1931
     13 C11        -1.2458   -5.1703    1.2453 C.ar      1 <0>         0.0126
     14 C12        -1.7651   -4.7811    2.4894 C.ar      1 <0>        -0.1104
     15 C13        -1.1534   -5.2505    3.6190 C.ar      1 <0>        -0.1547
     16 C14        -0.0473   -6.0903    3.5092 C.ar      1 <0>         0.0474
     17 N1          0.4324   -6.4493    2.3434 N.ar      1 <0>        -0.4161
     18 C15        -0.1203   -6.0252    1.2031 C.ar      1 <0>         0.0625
     19 C16         0.4045   -6.4187   -0.0468 C.ar      1 <0>         0.3671
     20 C17        -0.1779   -5.9713   -1.2313 C.ar      1 <0>        -0.3615
     21 C18        -1.3001   -5.1267   -1.2022 C.ar      1 <0>         0.0329
     22 C19        -1.6648   -4.8530   -2.6410 C.3       1 <0>         0.1545
     23 N2         -0.6949   -5.5917   -3.4566 N.am      1 <0>        -0.6319
     24 C20         0.1650   -6.2260   -2.6427 C.2       1 <0>         0.5812
     25 O3          1.0869   -6.9248   -3.0171 O.2       1 <0>        -0.5395
     26 C21        -0.6610   -5.6214   -4.9209 C.3       1 <0>         0.1805
     27 C22         0.2098   -4.5000   -5.4261 C.ar      1 <0>        -0.1136
     28 C23        -0.3434   -3.2607   -5.6889 C.ar      1 <0>        -0.0778
     29 C24         0.4543   -2.2314   -6.1518 C.ar      1 <0>        -0.1591
     30 C25         1.8081   -2.4419   -6.3523 C.ar      1 <0>         0.0943
     31 C26         2.3610   -3.6837   -6.0886 C.ar      1 <0>        -0.1549
     32 C27         1.5623   -4.7099   -5.6208 C.ar      1 <0>        -0.0631
     33 F1          2.5888   -1.4366   -6.8051 F         1 <0>        -0.1441
     34 O4          1.4824   -7.2369   -0.0953 O.3       1 <0>        -0.6174
     35 H1          1.0039    1.9031    0.0027 H         1 <0>         0.0763
     36 H2         -0.5459    1.8868   -0.8726 H         1 <0>         0.0642
     37 H3         -0.5289    1.8773    0.9072 H         1 <0>         0.0642
     38 H4          0.5123   -0.3556   -0.8948 H         1 <0>         0.0657
     39 H5          0.5293   -0.3651    0.8851 H         1 <0>         0.0655
     40 H6         -3.8507   -0.5150    0.0261 H         1 <0>         0.1320
     41 H7         -6.1031   -1.4923    0.0421 H         1 <0>         0.1246
     42 H8         -6.4004   -3.9327    0.0433 H         1 <0>         0.1246
     43 H9         -4.4488   -5.4228    0.0266 H         1 <0>         0.1317
     44 H10        -2.6235   -4.1288    2.5532 H         1 <0>         0.1193
     45 H11        -1.5265   -4.9707    4.5931 H         1 <0>         0.1211
     46 H12         0.4275   -6.4548    4.4081 H         1 <0>         0.1430
     47 H13        -2.6746   -5.2086   -2.8458 H         1 <0>         0.0777
     48 H14        -1.5935   -3.7854   -2.8491 H         1 <0>         0.0711
     49 H15        -0.2548   -6.5759   -5.2556 H         1 <0>         0.0909
     50 H16        -1.6718   -5.5001   -5.3103 H         1 <0>         0.0838
     51 H17        -1.3994   -3.0968   -5.5329 H         1 <0>         0.1299
     52 H18         0.0219   -1.2634   -6.3574 H         1 <0>         0.1321
     53 H19         3.4168   -3.8491   -6.2449 H         1 <0>         0.1339
     54 H20         1.9942   -5.6773   -5.4109 H         1 <0>         0.1389
@<TRIPOS>BOND
     1    1    2 1
     2    1   35 1
     3    1   36 1
     4    1   37 1
     5    2    3 1
     6    2   38 1
     7    2   39 1
     8    3    4 1
     9    4    5 2
    10    4    6 1
    11    6   11 ar
    12    6    7 ar
    13    7    8 ar
    14    7   40 1
    15    8    9 ar
    16    8   41 1
    17    9   10 ar
    18    9   42 1
    19   10   11 ar
    20   10   43 1
    21   11   12 1
    22   12   21 ar
    23   12   13 ar
    24   13   18 ar
    25   13   14 ar
    26   14   15 ar
    27   14   44 1
    28   15   16 ar
    29   15   45 1
    30   16   17 ar
    31   16   46 1
    32   17   18 ar
    33   18   19 ar
    34   19   20 ar
    35   19   34 1
    36   20   24 1
    37   20   21 ar
    38   21   22 1
    39   22   23 1
    40   22   47 1
    41   22   48 1
    42   23   24 am
    43   23   26 1
    44   24   25 2
    45   26   27 1
    46   26   49 1
    47   26   50 1
    48   27   32 ar
    49   27   28 ar
    50   28   29 ar
    51   28   51 1
    52   29   30 ar
    53   29   52 1
    54   30   31 ar
    55   30   33 1
    56   31   32 ar
    57   31   53 1
    58   32   54 1
@<TRIPOS>MOLECULE
CHEMBL144613
   32    33     0     0     0
SMALL
USER_CHARGES

@<TRIPOS>ATOM
      1 C1         -0.1769    1.5045   -0.5633 C.3       1 <0>        -0.1664
      2 C2         -0.1627   -0.0023   -0.5839 C.2       1 <0>         0.4918
      3 O1          0.7425   -0.5927   -1.1345 O.2       1 <0>        -0.5180
      4 N1         -1.1558   -0.6938    0.0094 N.am      1 <0>        -0.6610
      5 C3         -1.1920   -2.0858   -0.0881 C.ar      1 <0>         0.1057
      6 C4         -0.0207   -2.8134   -0.0922 C.ar      1 <0>        -0.0267
      7 C5         -0.0463   -4.2012   -0.1884 C.ar      1 <0>        -0.6490
      8 C6         -1.2245   -4.8776   -0.2815 C.ar      1 <0>        -0.0085
      9 C7         -2.4404   -4.1728   -0.2808 C.ar      1 <0>        -0.0717
     10 C8         -2.4266   -2.7604   -0.1774 C.ar      1 <0>        -0.0304
     11 C9         -3.6460   -2.0559   -0.1714 C.ar      1 <0>         0.0635
     12 C10        -4.8307   -2.7521   -0.2604 C.ar      1 <0>        -0.0444
     13 C11        -4.8345   -4.1410   -0.3560 C.ar      1 <0>        -0.6596
     14 C12        -3.6705   -4.8466   -0.3762 C.ar      1 <0>         0.0058
     15 S1         -6.3699   -4.9981   -0.4683 S.o2      1 <0>         2.7003
     16 O2         -6.1722   -6.3013    0.1470 O.2       1 <0>        -1.0607
     17 O3         -7.3520   -4.2013    0.2504 O.2       1 <0>        -1.0654
     18 O4         -6.6897   -5.1082   -1.8831 O.3       1 <0>        -1.0631
     19 O5         -3.6535   -0.7011   -0.0780 O.3       1 <0>        -0.4927
     20 S2          1.4705   -5.0979   -0.1906 S.o2      1 <0>         2.6981
     21 O6          1.2496   -6.2997   -0.9799 O.2       1 <0>        -1.0627
     22 O7          2.4730   -4.2308   -0.7899 O.2       1 <0>        -1.0592
     23 O8          1.7797   -5.4081    1.1966 O.3       1 <0>        -1.0645
     24 H1          0.6997    1.8834   -1.0888 H         1 <0>         0.0920
     25 H2         -1.0799    1.8661   -1.0551 H         1 <0>         0.0867
     26 H3         -0.1607    1.8539    0.4691 H         1 <0>         0.0867
     27 H4         -1.8454   -0.2241    0.5041 H         1 <0>         0.4154
     28 H5          0.9269   -2.3004   -0.0202 H         1 <0>         0.1489
     29 H6         -1.2245   -5.9550   -0.3562 H         1 <0>         0.1450
     30 H7         -5.7675   -2.2147   -0.2557 H         1 <0>         0.1383
     31 H8         -3.6925   -5.9237   -0.4517 H         1 <0>         0.1460
     32 H9         -3.6249   -0.2479   -0.9318 H         1 <0>         0.3797
@<TRIPOS>BOND
     1    1    2 1
     2    1   24 1
     3    1   25 1
     4    1   26 1
     5    2    3 2
     6    2    4 am
     7    4    5 1
     8    4   27 1
     9    5   10 ar
    10    5    6 ar
    11    6    7 ar
    12    6   28 1
    13    7    8 ar
    14    7   20 1
    15    8    9 ar
    16    8   29 1
    17    9   14 ar
    18    9   10 ar
    19   10   11 ar
    20   11   12 ar
    21   11   19 1
    22   12   13 ar
    23   12   30 1
    24   13   14 ar
    25   13   15 1
    26   14   31 1
    27   15   16 2
    28   15   17 2
    29   15   18 1
    30   19   32 1
    31   20   21 2
    32   20   22 2
    33   20   23 1
@<TRIPOS>MOLECULE
CHEMBL18635
   55    58     0     0     0
SMALL
USER_CHARGES

@<TRIPOS>ATOM
      1 C1         -0.0170    1.4021    0.0098 C.ar      1 <0>        -0.0833
      2 C2          1.1524    2.0980    0.0023 C.ar      1 <0>        -0.1284
      3 C3          2.3818    1.4365   -0.0129 C.ar      1 <0>         0.0969
      4 C4          2.4398    0.0560   -0.0213 C.ar      1 <0>         0.0818
      5 C5          1.2456   -0.6873   -0.0139 C.ar      1 <0>        -0.0430
      6 C6          0.0021   -0.0041    0.0020 C.ar      1 <0>        -0.0590
      7 C7         -1.1905   -0.7425    0.0089 C.ar      1 <0>        -0.0277
      8 C8         -1.1352   -2.1266    0.0005 C.ar      1 <0>        -0.1364
      9 C9          0.1045   -2.7920   -0.0143 C.ar      1 <0>        -0.0898
     10 C10         1.2682   -2.0941   -0.0226 C.ar      1 <0>        -0.1013
     11 C11        -2.3873   -2.9099    0.0078 C.2       1 <0>         0.5599
     12 O1         -3.4610   -2.3398    0.0210 O.2       1 <0>        -0.5312
     13 N1         -2.3396   -4.2568   -0.0004 N.am      1 <0>        -0.7273
     14 C12        -3.5815   -5.0339    0.0068 C.3       1 <0>         0.1221
     15 C13        -3.2489   -6.5272   -0.0048 C.3       1 <0>        -0.1455
     16 C14        -4.5459   -7.3387    0.0027 C.3       1 <0>         0.1221
     17 N2         -4.2274   -8.7686   -0.0084 N.am      1 <0>        -0.7273
     18 C15        -5.2201   -9.6802   -0.0044 C.2       1 <0>         0.5599
     19 O2         -6.3799   -9.3159    0.0085 O.2       1 <0>        -0.5312
     20 C16        -4.8989  -11.1218   -0.0156 C.ar      1 <0>        -0.1366
     21 C17        -3.5546  -11.5375   -0.0247 C.ar      1 <0>        -0.0899
     22 C18        -3.2347  -12.8562   -0.0355 C.ar      1 <0>        -0.1013
     23 C19        -4.2525  -13.8277   -0.0372 C.ar      1 <0>        -0.0437
     24 C20        -5.6121  -13.4218   -0.0277 C.ar      1 <0>        -0.0592
     25 C21        -5.9234  -12.0541   -0.0113 C.ar      1 <0>        -0.0277
     26 C22        -6.6269  -14.3953   -0.0285 C.ar      1 <0>        -0.0836
     27 C23        -6.3015  -15.7166   -0.0385 C.ar      1 <0>        -0.1290
     28 C24        -4.9673  -16.1277   -0.0476 C.ar      1 <0>         0.0980
     29 C25        -3.9435  -15.1999   -0.0479 C.ar      1 <0>         0.0828
     30 O3         -2.6473  -15.6101   -0.0571 O.3       1 <0>        -0.4841
     31 O4         -4.6725  -17.4549   -0.0570 O.3       1 <0>        -0.4914
     32 O5          3.6418   -0.5790   -0.0371 O.3       1 <0>        -0.4787
     33 O6          3.5339    2.1583   -0.0201 O.3       1 <0>        -0.4859
     34 H1         -0.9593    1.9294    0.0261 H         1 <0>         0.1409
     35 H2          1.1291    3.1777    0.0080 H         1 <0>         0.1392
     36 H3         -2.1442   -0.2359    0.0211 H         1 <0>         0.1472
     37 H4          0.1302   -3.8717   -0.0204 H         1 <0>         0.1276
     38 H5          2.2122   -2.6186   -0.0348 H         1 <0>         0.1383
     39 H6         -1.4829   -4.7117   -0.0109 H         1 <0>         0.4009
     40 H7         -4.1537   -4.7960    0.9035 H         1 <0>         0.0758
     41 H8         -4.1703   -4.7859   -0.8763 H         1 <0>         0.0759
     42 H9         -2.6766   -6.7650   -0.9015 H         1 <0>         0.0794
     43 H10        -2.6600   -6.7752    0.8783 H         1 <0>         0.0792
     44 H11        -5.1181   -7.1009    0.8994 H         1 <0>         0.0758
     45 H12        -5.1347   -7.0908   -0.8805 H         1 <0>         0.0758
     46 H13        -3.3020   -9.0593   -0.0187 H         1 <0>         0.4009
     47 H14        -2.7677  -10.7978   -0.0234 H         1 <0>         0.1275
     48 H15        -2.1984  -13.1602   -0.0431 H         1 <0>         0.1382
     49 H16        -6.9538  -11.7306    0.0004 H         1 <0>         0.1471
     50 H17        -7.6641  -14.0945   -0.0209 H         1 <0>         0.1407
     51 H18        -7.0868  -16.4580   -0.0391 H         1 <0>         0.1392
     52 H19        -2.2679  -15.7346    0.8236 H         1 <0>         0.3939
     53 H20        -4.5915  -17.8335   -0.9431 H         1 <0>         0.3966
     54 H21         3.9985   -0.7677    0.8417 H         1 <0>         0.3881
     55 H22         3.8757    2.3623    0.8612 H         1 <0>         0.3907
@<TRIPOS>BOND
     1    1    6 ar
     2    1    2 ar
     3    1   34 1
     4    2    3 ar
     5    2   35 1
     6    3    4 ar
     7    3   33 1
     8    4    5 ar
     9    4   32 1
    10    5   10 ar
    11    5    6 ar
    12    6    7 ar
    13    7    8 ar
    14    7   36 1
    15    8    9 ar
    16    8   11 1
    17    9   10 ar
    18    9   37 1
    19   10   38 1
    20   11   12 2
    21   11   13 am
    22   13   14 1
    23   13   39 1
    24   14   15 1
    25   14   40 1
    26   14   41 1
    27   15   16 1
    28   15   42 1
    29   15   43 1
    30   16   17 1
    31   16   44 1
    32   16   45 1
    33   17   18 am
    34   17   46 1
    35   18   19 2
    36   18   20 1
    37   20   25 ar
    38   20   21 ar
    39   21   22 ar
    40   21   47 1
    41   22   23 ar
    42   22   48 1
    43   23   29 ar
    44   23   24 ar
    45   24   25 ar
    46   24   26 ar
    47   25   49 1
    48   26   27 ar
    49   26   50 1
    50   27   28 ar
    51   27   51 1
    52   28   29 ar
    53   28   31 1
    54   29   30 1
    55   30   52 1
    56   31   53 1
    57   32   54 1
    58   33   55 1
@<TRIPOS>MOLECULE
CHEMBL148364
   48    49     0     0     0
SMALL
USER_CHARGES

@<TRIPOS>ATOM
      1 C1         -0.0167    1.3781    0.0096 C.ar      1 <0>        -0.0924
      2 C2          1.1694    2.0887    0.0021 C.ar      1 <0>        -0.1303
      3 C3          2.3801    1.4154   -0.0131 C.ar      1 <0>         0.0697
      4 C4          2.3990    0.0238   -0.0208 C.ar      1 <0>         0.0773
      5 C5          1.2069   -0.6821   -0.0132 C.ar      1 <0>        -0.1097
      6 C6          0.0021   -0.0041    0.0020 C.ar      1 <0>        -0.0471
      7 C7         -1.2936   -0.7736    0.0103 C.3       1 <0>        -0.0764
      8 C8         -1.7391   -1.0225   -1.4077 C.2       1 <0>         0.4611
      9 O1         -1.0728   -0.6166   -2.3303 O.2       1 <0>        -0.5179
     10 O2         -2.8761   -1.6950   -1.6457 O.3       1 <0>        -0.3073
     11 C9         -3.2376   -1.8946   -3.0138 C.3       1 <0>         0.0452
     12 C10        -4.7614   -1.9593   -3.1344 C.3       1 <0>         0.0456
     13 C11        -5.3665   -0.7196   -2.5277 C.2       1 <0>         0.5005
     14 O3         -5.1546    0.3708   -3.0303 O.co2     1 <0>        -0.6941
     15 O4         -6.0678   -0.8070   -1.5343 O.co2     1 <0>        -0.6840
     16 O5         -5.2454   -3.1127   -2.4434 O.3       1 <0>        -0.3067
     17 C12        -6.3686   -3.6779   -2.9133 C.2       1 <0>         0.4632
     18 O6         -6.9225   -3.2088   -3.8792 O.2       1 <0>        -0.5215
     19 C13        -6.9387   -4.8974   -2.2360 C.3       1 <0>        -0.0774
     20 C14        -8.1913   -5.3309   -2.9532 C.ar      1 <0>        -0.0465
     21 C15        -9.4174   -4.8215   -2.5686 C.ar      1 <0>        -0.0912
     22 C16       -10.5695   -5.2160   -3.2235 C.ar      1 <0>        -0.1302
     23 C17       -10.4965   -6.1238   -4.2675 C.ar      1 <0>         0.0695
     24 C18        -9.2620   -6.6367   -4.6546 C.ar      1 <0>         0.0776
     25 C19        -8.1108   -6.2329   -3.9980 C.ar      1 <0>        -0.1105
     26 O7         -9.1852   -7.5281   -5.6788 O.3       1 <0>        -0.4915
     27 O8        -11.6288   -6.5133   -4.9123 O.3       1 <0>        -0.4927
     28 C20        -2.6392   -3.1863   -3.5082 C.2       1 <0>         0.5001
     29 O9         -2.0429   -3.9170   -2.7355 O.co2     1 <0>        -0.6835
     30 O10        -2.7514   -3.5006   -4.6808 O.co2     1 <0>        -0.6944
     31 O11         3.5850   -0.6415   -0.0361 O.3       1 <0>        -0.4862
     32 O12         3.5476    2.1129   -0.0209 O.3       1 <0>        -0.4889
     33 H1         -0.9598    1.9041    0.0260 H         1 <0>         0.1337
     34 H2          1.1520    3.1685    0.0077 H         1 <0>         0.1314
     35 H3          1.2188   -1.7620   -0.0195 H         1 <0>         0.1364
     36 H4         -1.1467   -1.7271    0.5176 H         1 <0>         0.1140
     37 H5         -2.0555   -0.1967    0.5345 H         1 <0>         0.1142
     38 H6         -2.8604   -1.0664   -3.6137 H         1 <0>         0.0941
     39 H7         -5.0403   -2.0223   -4.1863 H         1 <0>         0.0937
     40 H8         -6.2064   -5.7043   -2.2639 H         1 <0>         0.1133
     41 H9         -7.1775   -4.6591   -1.1995 H         1 <0>         0.1158
     42 H10        -9.4757   -4.1140   -1.7547 H         1 <0>         0.1337
     43 H11       -11.5263   -4.8168   -2.9208 H         1 <0>         0.1309
     44 H12        -7.1510   -6.6257   -4.2995 H         1 <0>         0.1357
     45 H13        -9.0658   -7.1199   -6.5473 H         1 <0>         0.3850
     46 H14       -11.8594   -5.9600   -5.6711 H         1 <0>         0.3819
     47 H15         3.9367   -0.8387    0.8428 H         1 <0>         0.3791
     48 H16         3.8939    2.3101    0.8601 H         1 <0>         0.3780
@<TRIPOS>BOND
     1    1    6 ar
     2    1    2 ar
     3    1   33 1
     4    2    3 ar
     5    2   34 1
     6    3    4 ar
     7    3   32 1
     8    4    5 ar
     9    4   31 1
    10    5    6 ar
    11    5   35 1
    12    6    7 1
    13    7    8 1
    14    7   36 1
    15    7   37 1
    16    8    9 2
    17    8   10 1
    18   10   11 1
    19   11   12 1
    20   11   28 1
    21   11   38 1
    22   12   13 1
    23   12   16 1
    24   12   39 1
    25   13   14 2
    26   13   15 1
    27   16   17 1
    28   17   18 2
    29   17   19 1
    30   19   20 1
    31   19   40 1
    32   19   41 1
    33   20   25 ar
    34   20   21 ar
    35   21   22 ar
    36   21   42 1
    37   22   23 ar
    38   22   43 1
    39   23   24 ar
    40   23   27 1
    41   24   25 ar
    42   24   26 1
    43   25   44 1
    44   26   45 1
    45   27   46 1
    46   28   29 2
    47   28   30 1
    48   31   47 1
    49   32   48 1
@<TRIPOS>MOLECULE
CHEMBL148364__1
   48    49     0     0     0
SMALL
USER_CHARGES

@<TRIPOS>ATOM
      1 C1         -0.0167    1.3781    0.0096 C.ar      1 <0>        -0.0923
      2 C2          1.1694    2.0887    0.0021 C.ar      1 <0>        -0.1305
      3 C3          2.3801    1.4154   -0.0131 C.ar      1 <0>         0.0695
      4 C4          2.3990    0.0238   -0.0208 C.ar      1 <0>         0.0772
      5 C5          1.2069   -0.6821   -0.0132 C.ar      1 <0>        -0.1100
      6 C6          0.0021   -0.0041    0.0020 C.ar      1 <0>        -0.0466
      7 C7         -1.2936   -0.7736    0.0103 C.3       1 <0>        -0.0752
      8 C8         -1.7391   -1.0225   -1.4077 C.2       1 <0>         0.4668
      9 O1         -1.0728   -0.6166   -2.3303 O.2       1 <0>        -0.5213
     10 O2         -2.8761   -1.6950   -1.6457 O.3       1 <0>        -0.2967
     11 C9         -3.2376   -1.8946   -3.0138 C.3       1 <0>         0.0444
     12 C10        -4.7614   -1.9593   -3.1344 C.3       1 <0>         0.0451
     13 C11        -5.3598   -0.6676   -2.6400 C.2       1 <0>         0.4951
     14 O3         -5.9561    0.0631   -3.4127 O.co2     1 <0>        -0.6919
     15 O4         -5.2476   -0.3532   -1.4674 O.co2     1 <0>        -0.6800
     16 O5         -5.1229   -2.1588   -4.5025 O.3       1 <0>        -0.2959
     17 C12        -6.2599   -2.8314   -4.7405 C.2       1 <0>         0.4692
     18 O6         -6.9262   -3.2373   -3.8179 O.2       1 <0>        -0.5253
     19 C13        -6.7054   -3.0803   -6.1585 C.3       1 <0>        -0.0765
     20 C14        -8.0011   -3.8498   -6.1502 C.ar      1 <0>        -0.0458
     21 C15        -7.9823   -5.2320   -6.1521 C.ar      1 <0>        -0.0925
     22 C16        -9.1683   -5.9426   -6.1446 C.ar      1 <0>        -0.1302
     23 C17       -10.3791   -5.2693   -6.1351 C.ar      1 <0>         0.0691
     24 C18       -10.3980   -3.8777   -6.1331 C.ar      1 <0>         0.0771
     25 C19        -9.2059   -3.1718   -6.1350 C.ar      1 <0>        -0.1092
     26 O7        -11.5840   -3.2123   -6.1239 O.3       1 <0>        -0.4917
     27 O8        -11.5466   -5.9667   -6.1281 O.3       1 <0>        -0.4926
     28 C20        -2.6392   -3.1863   -3.5082 C.2       1 <0>         0.4950
     29 O9         -2.0429   -3.9170   -2.7355 O.co2     1 <0>        -0.6922
     30 O10        -2.7514   -3.5006   -4.6808 O.co2     1 <0>        -0.6794
     31 O11         3.5850   -0.6415   -0.0361 O.3       1 <0>        -0.4863
     32 O12         3.5476    2.1129   -0.0209 O.3       1 <0>        -0.4889
     33 H1         -0.9598    1.9041    0.0260 H         1 <0>         0.1340
     34 H2          1.1520    3.1685    0.0077 H         1 <0>         0.1312
     35 H3          1.2188   -1.7620   -0.0195 H         1 <0>         0.1363
     36 H4         -1.1467   -1.7271    0.5176 H         1 <0>         0.1131
     37 H5         -2.0555   -0.1967    0.5345 H         1 <0>         0.1173
     38 H6         -2.8604   -1.0664   -3.6137 H         1 <0>         0.0777
     39 H7         -5.1385   -2.7875   -2.5345 H         1 <0>         0.0775
     40 H8         -6.8523   -2.1268   -6.6658 H         1 <0>         0.1137
     41 H9         -5.9435   -3.6572   -6.6827 H         1 <0>         0.1178
     42 H10        -7.0390   -5.7580   -6.1599 H         1 <0>         0.1338
     43 H11        -9.1508   -7.0224   -6.1464 H         1 <0>         0.1309
     44 H12        -9.2178   -2.0919   -6.1288 H         1 <0>         0.1359
     45 H13       -11.9208   -3.0210   -5.2378 H         1 <0>         0.3848
     46 H14       -11.8781   -6.1699   -5.2427 H         1 <0>         0.3817
     47 H15         3.9367   -0.8387    0.8428 H         1 <0>         0.3790
     48 H16         3.8939    2.3101    0.8601 H         1 <0>         0.3779
@<TRIPOS>BOND
     1    1    6 ar
     2    1    2 ar
     3    1   33 1
     4    2    3 ar
     5    2   34 1
     6    3    4 ar
     7    3   32 1
     8    4    5 ar
     9    4   31 1
    10    5    6 ar
    11    5   35 1
    12    6    7 1
    13    7    8 1
    14    7   36 1
    15    7   37 1
    16    8    9 2
    17    8   10 1
    18   10   11 1
    19   11   12 1
    20   11   28 1
    21   11   38 1
    22   12   13 1
    23   12   16 1
    24   12   39 1
    25   13   14 2
    26   13   15 1
    27   16   17 1
    28   17   18 2
    29   17   19 1
    30   19   20 1
    31   19   40 1
    32   19   41 1
    33   20   25 ar
    34   20   21 ar
    35   21   22 ar
    36   21   42 1
    37   22   23 ar
    38   22   43 1
    39   23   24 ar
    40   23   27 1
    41   24   25 ar
    42   24   26 1
    43   25   44 1
    44   26   45 1
    45   27   46 1
    46   28   29 2
    47   28   30 1
    48   31   47 1
    49   32   48 1
@<TRIPOS>MOLECULE
CHEMBL148364__2
   48    49     0     0     0
SMALL
USER_CHARGES

@<TRIPOS>ATOM
      1 C1         -0.0167    1.3781    0.0096 C.ar      1 <0>        -0.0907
      2 C2          1.1694    2.0887    0.0021 C.ar      1 <0>        -0.1305
      3 C3          2.3801    1.4154   -0.0131 C.ar      1 <0>         0.0696
      4 C4          2.3990    0.0238   -0.0208 C.ar      1 <0>         0.0774
      5 C5          1.2069   -0.6821   -0.0132 C.ar      1 <0>        -0.1113
      6 C6          0.0021   -0.0041    0.0020 C.ar      1 <0>        -0.0469
      7 C7         -1.2936   -0.7736    0.0103 C.3       1 <0>        -0.0764
      8 C8         -1.7391   -1.0225   -1.4077 C.2       1 <0>         0.4622
      9 O1         -1.0728   -0.6166   -2.3303 O.2       1 <0>        -0.5179
     10 O2         -2.8761   -1.6950   -1.6457 O.3       1 <0>        -0.3080
     11 C9         -3.2376   -1.8946   -3.0138 C.3       1 <0>         0.0449
     12 C10        -4.0249   -3.1995   -3.1481 C.3       1 <0>         0.0465
     13 C11        -3.2202   -4.3338   -2.5676 C.2       1 <0>         0.4997
     14 O3         -3.6230   -4.9240   -1.5798 O.co2     1 <0>        -0.6844
     15 O4         -2.1663   -4.6613   -3.0859 O.co2     1 <0>        -0.6940
     16 O5         -5.2625   -3.0839   -2.4431 O.3       1 <0>        -0.3076
     17 C12        -6.3009   -3.7919   -2.9145 C.2       1 <0>         0.4636
     18 O6         -6.1636   -4.4869   -3.8933 O.2       1 <0>        -0.5211
     19 C13        -7.6379   -3.7201   -2.2230 C.3       1 <0>        -0.0774
     20 C14        -8.6249   -4.6006   -2.9451 C.ar      1 <0>        -0.0465
     21 C15        -9.3842   -4.0830   -3.9777 C.ar      1 <0>        -0.0924
     22 C16       -10.2911   -4.8868   -4.6433 C.ar      1 <0>        -0.1300
     23 C17       -10.4404   -6.2142   -4.2758 C.ar      1 <0>         0.0695
     24 C18        -9.6759   -6.7354   -3.2361 C.ar      1 <0>         0.0771
     25 C19        -8.7649   -5.9260   -2.5770 C.ar      1 <0>        -0.1090
     26 O7         -9.8189   -8.0378   -2.8717 O.3       1 <0>        -0.4918
     27 O8        -11.3323   -7.0061   -4.9292 O.3       1 <0>        -0.4927
     28 C20        -4.0901   -0.7431   -3.4812 C.2       1 <0>         0.5010
     29 O9         -4.3628    0.1643   -2.7139 O.co2     1 <0>        -0.6850
     30 O10        -4.5070   -0.7190   -4.6266 O.co2     1 <0>        -0.6937
     31 O11         3.5850   -0.6415   -0.0361 O.3       1 <0>        -0.4863
     32 O12         3.5476    2.1129   -0.0209 O.3       1 <0>        -0.4889
     33 H1         -0.9598    1.9041    0.0260 H         1 <0>         0.1341
     34 H2          1.1520    3.1685    0.0077 H         1 <0>         0.1312
     35 H3          1.2188   -1.7620   -0.0195 H         1 <0>         0.1360
     36 H4         -1.1467   -1.7271    0.5176 H         1 <0>         0.1125
     37 H5         -2.0555   -0.1967    0.5345 H         1 <0>         0.1153
     38 H6         -2.3357   -1.9499   -3.6235 H         1 <0>         0.0940
     39 H7         -4.2239   -3.3970   -4.2015 H         1 <0>         0.0946
     40 H8         -7.5329   -4.0607   -1.1929 H         1 <0>         0.1143
     41 H9         -7.9960   -2.6906   -2.2306 H         1 <0>         0.1143
     42 H10        -9.2690   -3.0483   -4.2649 H         1 <0>         0.1335
     43 H11       -10.8834   -4.4798   -5.4495 H         1 <0>         0.1310
     44 H12        -8.1670   -6.3293   -1.7731 H         1 <0>         0.1359
     45 H13        -9.2324   -8.6449   -3.3435 H         1 <0>         0.3849
     46 H14       -10.9627   -7.4655   -5.6956 H         1 <0>         0.3819
     47 H15         3.9367   -0.8387    0.8428 H         1 <0>         0.3793
     48 H16         3.8939    2.3101    0.8601 H         1 <0>         0.3779
@<TRIPOS>BOND
     1    1    6 ar
     2    1    2 ar
     3    1   33 1
     4    2    3 ar
     5    2   34 1
     6    3    4 ar
     7    3   32 1
     8    4    5 ar
     9    4   31 1
    10    5    6 ar
    11    5   35 1
    12    6    7 1
    13    7    8 1
    14    7   36 1
    15    7   37 1
    16    8    9 2
    17    8   10 1
    18   10   11 1
    19   11   12 1
    20   11   28 1
    21   11   38 1
    22   12   13 1
    23   12   16 1
    24   12   39 1
    25   13   14 2
    26   13   15 1
    27   16   17 1
    28   17   18 2
    29   17   19 1
    30   19   20 1
    31   19   40 1
    32   19   41 1
    33   20   25 ar
    34   20   21 ar
    35   21   22 ar
    36   21   42 1
    37   22   23 ar
    38   22   43 1
    39   23   24 ar
    40   23   27 1
    41   24   25 ar
    42   24   26 1
    43   25   44 1
    44   26   45 1
    45   27   46 1
    46   28   29 2
    47   28   30 1
    48   31   47 1
    49   32   48 1
@<TRIPOS>MOLECULE
CHEMBL209307
   55    58     0     0     0
SMALL
USER_CHARGES

@<TRIPOS>ATOM
      1 C1          1.2450    0.4424   -0.7145 C.3       1 <0>         0.0899
      2 N1          0.0460   -0.0083   -0.0035 N.am      1 <0>        -0.5425
      3 C2          0.1675   -0.8070    1.1262 C.ar      1 <0>         0.3900
      4 C3          0.1657   -0.2153    2.4113 C.ar      1 <0>        -0.1136
      5 C4          0.0431    1.1709    2.5886 C.ar      1 <0>        -0.0364
      6 C5          0.0502    1.6599    3.8666 C.ar      1 <0>        -0.1554
      7 C6          0.1767    0.7873    4.9442 C.ar      1 <0>         0.1504
      8 N2          0.2911   -0.5089    4.7715 N.ar      1 <0>        -0.4506
      9 C7          0.2907   -1.0446    3.5518 C.ar      1 <0>         0.1260
     10 C8          0.4130   -2.4402    3.3498 C.ar      1 <0>         0.1817
     11 C9          0.4048   -2.9276    2.0488 C.ar      1 <0>         0.0403
     12 N3          0.2784   -2.1102    0.9978 N.ar      1 <0>        -0.4431
     13 C10         0.5314   -4.3802    1.8218 C.2       1 <0>         0.5764
     14 O1          0.6414   -5.1361    2.7679 O.2       1 <0>        -0.5106
     15 N4          0.5252   -4.8691    0.5659 N.am      1 <0>        -0.7099
     16 C11         0.6509   -6.3112    0.3405 C.3       1 <0>         0.1624
     17 C12         0.6160   -6.5933   -1.1394 C.ar      1 <0>        -0.1228
     18 C13        -0.5918   -6.8285   -1.7694 C.ar      1 <0>        -0.0688
     19 C14        -0.6251   -7.0868   -3.1267 C.ar      1 <0>        -0.1555
     20 C15         0.5520   -7.1101   -3.8555 C.ar      1 <0>         0.1087
     21 C16         1.7611   -6.8744   -3.2234 C.ar      1 <0>        -0.1551
     22 C17         1.7914   -6.6110   -1.8670 C.ar      1 <0>        -0.0684
     23 F1          0.5207   -7.3630   -5.1822 F         1 <0>        -0.1369
     24 O2          0.5361   -3.2838    4.4038 O.3       1 <0>        -0.4477
     25 C18        -1.1751    0.3521   -0.4458 C.2       1 <0>         0.5193
     26 O3         -2.1634    0.0593    0.1949 O.2       1 <0>        -0.4933
     27 C19        -1.3120    1.1119   -1.7242 C.2       1 <0>         0.5256
     28 O4         -0.3212    1.4853   -2.3173 O.2       1 <0>        -0.5094
     29 N5         -2.5359    1.3830   -2.2193 N.am      1 <0>        -0.5886
     30 C20        -3.8140    0.9977   -1.6032 C.3       1 <0>         0.1025
     31 C21        -4.9398    1.4965   -2.5334 C.3       1 <0>        -0.1361
     32 C22        -4.2228    1.6375   -3.9021 C.3       1 <0>        -0.1348
     33 C23        -2.8148    2.1204   -3.4649 C.3       1 <0>         0.1037
     34 H1          2.1326    0.1278   -0.1656 H         1 <0>         0.0744
     35 H2          1.2613    0.0053   -1.7128 H         1 <0>         0.0823
     36 H3          1.2332    1.5294   -0.7939 H         1 <0>         0.0873
     37 H4         -0.0538    1.8331    1.7409 H         1 <0>         0.1431
     38 H5         -0.0418    2.7220    4.0393 H         1 <0>         0.1510
     39 H6          0.1812    1.1871    5.9474 H         1 <0>         0.1738
     40 H7          0.4375   -4.2661   -0.1889 H         1 <0>         0.4115
     41 H8          1.5956   -6.6628    0.7553 H         1 <0>         0.0831
     42 H9         -0.1751   -6.8286    0.8286 H         1 <0>         0.0825
     43 H10        -1.5098   -6.8107   -1.2007 H         1 <0>         0.1355
     44 H11        -1.5688   -7.2709   -3.6186 H         1 <0>         0.1385
     45 H12         2.6799   -6.8925   -3.7908 H         1 <0>         0.1389
     46 H13         2.7340   -6.4227   -1.3746 H         1 <0>         0.1361
     47 H14        -0.3070   -3.6108    4.7464 H         1 <0>         0.4047
     48 H15        -3.8667   -0.0867   -1.5060 H         1 <0>         0.0782
     49 H16        -3.9088    1.4649   -0.6230 H         1 <0>         0.0807
     50 H17        -5.7440    0.7632   -2.5931 H         1 <0>         0.0868
     51 H18        -5.3199    2.4607   -2.1960 H         1 <0>         0.0799
     52 H19        -4.1683    0.6775   -4.4154 H         1 <0>         0.0795
     53 H20        -4.7141    2.3846   -4.5254 H         1 <0>         0.0905
     54 H21        -2.8209    3.1940   -3.2769 H         1 <0>         0.0782
     55 H22        -2.0757    1.8720   -4.2265 H         1 <0>         0.0859
@<TRIPOS>BOND
     1    1    2 1
     2    1   34 1
     3    1   35 1
     4    1   36 1
     5    2    3 1
     6    2   25 am
     7    3   12 ar
     8    3    4 ar
     9    4    9 ar
    10    4    5 ar
    11    5    6 ar
    12    5   37 1
    13    6    7 ar
    14    6   38 1
    15    7    8 ar
    16    7   39 1
    17    8    9 ar
    18    9   10 ar
    19   10   11 ar
    20   10   24 1
    21   11   12 ar
    22   11   13 1
    23   13   14 2
    24   13   15 am
    25   15   16 1
    26   15   40 1
    27   16   17 1
    28   16   41 1
    29   16   42 1
    30   17   22 ar
    31   17   18 ar
    32   18   19 ar
    33   18   43 1
    34   19   20 ar
    35   19   44 1
    36   20   21 ar
    37   20   23 1
    38   21   22 ar
    39   21   45 1
    40   22   46 1
    41   24   47 1
    42   25   26 2
    43   25   27 1
    44   27   28 2
    45   27   29 am
    46   29   33 1
    47   29   30 1
    48   30   31 1
    49   30   48 1
    50   30   49 1
    51   31   32 1
    52   31   50 1
    53   31   51 1
    54   32   33 1
    55   32   52 1
    56   32   53 1
    57   33   54 1
    58   33   55 1
@<TRIPOS>MOLECULE
CHEMBL386515
   46    47     0     0     0
SMALL
USER_CHARGES

@<TRIPOS>ATOM
      1 C1         -0.0169    0.8639   -0.2280 C.3       1 <0>        -0.1648
      2 C2         -0.0835   -0.6296    0.0971 C.3       1 <0>         0.1436
      3 C3          0.4381   -0.8664    1.5159 C.3       1 <0>        -0.1465
      4 C4         -1.5116   -1.1012    0.0017 C.2       1 <0>         0.4476
      5 N1         -1.7700   -2.4074    0.1513 N.pl3     1 <0>        -0.5700
      6 C5         -3.0554   -2.8930    0.0737 C.2       1 <0>         0.0042
      7 C6         -4.0785   -2.0143   -0.1608 C.2       1 <0>         0.0703
      8 C7         -3.7377   -0.5899   -0.3173 C.2       1 <0>         0.4936
      9 N2         -2.4509   -0.2199   -0.2184 N.2       1 <0>        -0.5671
     10 O1         -4.6085    0.2384   -0.5284 O.2       1 <0>        -0.4879
     11 O2         -5.3626   -2.4409   -0.2467 O.3       1 <0>        -0.4194
     12 C8         -3.3258   -4.3347    0.2400 C.2       1 <0>         0.5693
     13 O3         -4.4505   -4.7654    0.0738 O.2       1 <0>        -0.4864
     14 N3         -2.3259   -5.1735    0.5760 N.am      1 <0>        -0.7262
     15 C9         -2.6127   -6.5848    0.8447 C.3       1 <0>         0.1651
     16 C10        -1.3332   -7.2996    1.1954 C.ar      1 <0>        -0.1269
     17 C11        -0.5696   -7.8779    0.1986 C.ar      1 <0>        -0.0681
     18 C12         0.6042   -8.5333    0.5190 C.ar      1 <0>        -0.1546
     19 C13         1.0153   -8.6105    1.8389 C.ar      1 <0>         0.1113
     20 C14         0.2496   -8.0309    2.8364 C.ar      1 <0>        -0.1550
     21 C15        -0.9211   -7.3715    2.5130 C.ar      1 <0>        -0.0691
     22 F1          2.1623   -9.2513    2.1534 F         1 <0>        -0.1357
     23 N4          0.7438   -1.3765   -0.8598 N.3       1 <0>        -0.5383
     24 C16         0.2188   -1.2439   -2.2253 C.3       1 <0>         0.0113
     25 C17         2.1467   -0.9461   -0.7910 C.3       1 <0>         0.0164
     26 H1          1.0161    1.2051   -0.1590 H         1 <0>         0.0694
     27 H2         -0.3884    1.0327   -1.2388 H         1 <0>         0.0712
     28 H3         -0.6307    1.4181    0.4820 H         1 <0>         0.0808
     29 H4         -0.1758   -0.3122    2.2259 H         1 <0>         0.0748
     30 H5          0.3906   -1.9305    1.7475 H         1 <0>         0.0665
     31 H6          1.4710   -0.5253    1.5849 H         1 <0>         0.0834
     32 H7         -6.0013   -1.7346   -0.4147 H         1 <0>         0.4120
     33 H8         -1.4162   -4.8428    0.6400 H         1 <0>         0.3961
     34 H9         -3.3117   -6.6614    1.6775 H         1 <0>         0.0844
     35 H10        -3.0527   -7.0414   -0.0420 H         1 <0>         0.0855
     36 H11        -0.8906   -7.8179   -0.8308 H         1 <0>         0.1364
     37 H12         1.2004   -8.9853   -0.2598 H         1 <0>         0.1396
     38 H13         0.5691   -8.0908    3.8663 H         1 <0>         0.1395
     39 H14        -1.5162   -6.9155    3.2904 H         1 <0>         0.1362
     40 H15         0.2151   -0.1924   -2.5126 H         1 <0>         0.0444
     41 H16         0.8499   -1.8064   -2.9134 H         1 <0>         0.0793
     42 H17        -0.7981   -1.6344   -2.2632 H         1 <0>         0.0612
     43 H18         2.5534   -1.1886    0.1908 H         1 <0>         0.0777
     44 H19         2.7227   -1.4607   -1.5600 H         1 <0>         0.0765
     45 H20         2.2049    0.1302   -0.9526 H         1 <0>         0.0424
     46 H21        -1.0379   -3.0219    0.3169 H         1 <0>         0.4261
@<TRIPOS>BOND
     1    1    2 1
     2    1   26 1
     3    1   27 1
     4    1   28 1
     5    2    3 1
     6    2   23 1
     7    2    4 1
     8    3   29 1
     9    3   30 1
    10    3   31 1
    11    4    5 1
    12    4    9 2
    13    5    6 1
    14    5   46 1
    15    6   12 1
    16    6    7 2
    17    7   11 1
    18    7    8 1
    19    8   10 2
    20    8    9 1
    21   11   32 1
    22   12   13 2
    23   12   14 am
    24   14   15 1
    25   14   33 1
    26   15   16 1
    27   15   34 1
    28   15   35 1
    29   16   21 ar
    30   16   17 ar
    31   17   18 ar
    32   17   36 1
    33   18   19 ar
    34   18   37 1
    35   19   20 ar
    36   19   22 1
    37   20   21 ar
    38   20   38 1
    39   21   39 1
    40   23   24 1
    41   23   25 1
    42   24   40 1
    43   24   41 1
    44   24   42 1
    45   25   43 1
    46   25   44 1
    47   25   45 1
@<TRIPOS>MOLECULE
CHEMBL386515__1
   46    47     0     0     0
SMALL
USER_CHARGES

@<TRIPOS>ATOM
      1 C1         -0.1086    1.4774    0.1155 C.3       1 <0>        -0.1657
      2 C2         -0.0807   -0.0433    0.2814 C.3       1 <0>         0.1448
      3 C3          0.6574   -0.4020    1.5727 C.3       1 <0>        -0.1637
      4 C4         -1.4921   -0.5674    0.3474 C.ar      1 <0>         0.3010
      5 N1         -2.2339   -0.2652    1.3885 N.ar      1 <0>        -0.5508
      6 C5         -3.4892   -0.7076    1.4884 C.ar      1 <0>         0.0857
      7 C6         -4.0074   -1.5023    0.4632 C.ar      1 <0>         0.0068
      8 C7         -3.1756   -1.7975   -0.6283 C.ar      1 <0>         0.4296
      9 N2         -1.9443   -1.3107   -0.6457 N.ar      1 <0>        -0.6212
     10 O1         -3.6274   -2.5646   -1.6506 O.3       1 <0>        -0.6454
     11 O2         -5.2780   -1.9755    0.5210 O.3       1 <0>        -0.4591
     12 C8         -4.3180   -0.3624    2.6659 C.2       1 <0>         0.5737
     13 O3         -5.4597   -0.7709    2.7461 O.2       1 <0>        -0.5129
     14 N3         -3.8061    0.4048    3.6486 N.am      1 <0>        -0.7135
     15 C9         -4.6261    0.7464    4.8136 C.3       1 <0>         0.1607
     16 C10        -3.8251    1.6062    5.7570 C.ar      1 <0>        -0.1172
     17 C11        -3.0625    1.0180    6.7489 C.ar      1 <0>        -0.0697
     18 C12        -2.3272    1.8055    7.6143 C.ar      1 <0>        -0.1553
     19 C13        -2.3544    3.1840    7.4878 C.ar      1 <0>         0.1057
     20 C14        -3.1185    3.7720    6.4940 C.ar      1 <0>        -0.1554
     21 C15        -3.8489    2.9822    5.6264 C.ar      1 <0>        -0.0697
     22 F1         -1.6362    3.9548    8.3336 F         1 <0>        -0.1381
     23 N4          0.6131   -0.6481   -0.8634 N.4       1 <0>        -0.3691
     24 C16         1.9421   -0.0391   -1.0080 C.3       1 <0>        -0.0535
     25 C17         0.7582   -2.0929   -0.6406 C.3       1 <0>        -0.0461
     26 H1          0.9123    1.8564    0.0678 H         1 <0>         0.0835
     27 H2         -0.6344    1.7330   -0.8044 H         1 <0>         0.0778
     28 H3         -0.6234    1.9262    0.9650 H         1 <0>         0.1089
     29 H4          0.1425    0.0467    2.4222 H         1 <0>         0.1114
     30 H5          0.6772   -1.4854    1.6909 H         1 <0>         0.0786
     31 H6          1.6782   -0.0230    1.5250 H         1 <0>         0.0797
     32 H7         -5.9349   -1.3885    0.1222 H         1 <0>         0.3818
     33 H8         -2.8948    0.7309    3.5846 H         1 <0>         0.4089
     34 H9         -5.5114    1.2923    4.4874 H         1 <0>         0.0794
     35 H10        -4.9303   -0.1673    5.3242 H         1 <0>         0.0797
     36 H11        -3.0417   -0.0573    6.8476 H         1 <0>         0.1356
     37 H12        -1.7318    1.3458    8.3893 H         1 <0>         0.1378
     38 H13        -3.1407    4.8471    6.3946 H         1 <0>         0.1378
     39 H14        -4.4414    3.4404    4.8484 H         1 <0>         0.1354
     40 H15         1.8334    1.0266   -1.2093 H         1 <0>         0.1217
     41 H16         2.5081   -0.1791   -0.0871 H         1 <0>         0.1199
     42 H17         2.4709   -0.5130   -1.8350 H         1 <0>         0.1216
     43 H18        -0.2158   -2.5246   -0.4104 H         1 <0>         0.1364
     44 H19         1.1597   -2.5607   -1.5395 H         1 <0>         0.1170
     45 H20         1.4384   -2.2654    0.1935 H         1 <0>         0.1109
     46 H21         0.0773   -0.4896   -1.7036 H         1 <0>         0.4346
@<TRIPOS>BOND
     1    1    2 1
     2    1   26 1
     3    1   27 1
     4    1   28 1
     5    2    3 1
     6    2   23 1
     7    2    4 1
     8    3   29 1
     9    3   30 1
    10    3   31 1
    11    4    5 ar
    12    4    9 ar
    13    5    6 ar
    14    6   12 1
    15    6    7 ar
    16    7   11 1
    17    7    8 ar
    18    8   10 1
    19    8    9 ar
    20   11   32 1
    21   12   13 2
    22   12   14 am
    23   14   15 1
    24   14   33 1
    25   15   16 1
    26   15   34 1
    27   15   35 1
    28   16   21 ar
    29   16   17 ar
    30   17   18 ar
    31   17   36 1
    32   18   19 ar
    33   18   37 1
    34   19   20 ar
    35   19   22 1
    36   20   21 ar
    37   20   38 1
    38   21   39 1
    39   23   24 1
    40   23   25 1
    41   23   46 1
    42   24   40 1
    43   24   41 1
    44   24   42 1
    45   25   43 1
    46   25   44 1
    47   25   45 1
@<TRIPOS>MOLECULE
CHEMBL209854
   50    54     0     0     0
SMALL
USER_CHARGES

@<TRIPOS>ATOM
      1 C1         -0.0168    1.3885    0.0097 C.ar      1 <0>        -0.1477
      2 C2          1.1613    2.0840    0.0022 C.ar      1 <0>        -0.1092
      3 C3          2.3594    1.3552   -0.0132 C.ar      1 <0>         0.0080
      4 C4          3.6592    2.0272   -0.0209 C.ar      1 <0>        -0.2754
      5 C5          4.8099    1.2627   -0.0351 C.ar      1 <0>         0.0433
      6 C6          4.7464   -0.1386   -0.0420 C.ar      1 <0>        -0.3617
      7 C7          3.5148   -0.7942   -0.0337 C.ar      1 <0>         0.3715
      8 C8          2.3090   -0.0572   -0.0203 C.ar      1 <0>         0.0616
      9 N1          1.1265   -0.6778   -0.0120 N.ar      1 <0>        -0.4136
     10 C9          0.0021   -0.0041    0.0020 C.ar      1 <0>         0.0542
     11 O1          3.4745   -2.1461   -0.0410 O.3       1 <0>        -0.6004
     12 C10         6.1264   -0.6585   -0.0576 C.2       1 <0>         0.5817
     13 O2          6.4231   -1.8376   -0.0671 O.2       1 <0>        -0.5343
     14 N2          7.0093    0.3536   -0.0604 N.am      1 <0>        -0.6300
     15 C11         6.2754    1.6236   -0.0467 C.3       1 <0>         0.1485
     16 C12         8.4674    0.2123   -0.0751 C.3       1 <0>         0.1801
     17 C13         8.9538    0.1724   -1.5009 C.ar      1 <0>        -0.1145
     18 C14         9.0557   -1.0373   -2.1623 C.ar      1 <0>        -0.0632
     19 C15         9.5012   -1.0751   -3.4700 C.ar      1 <0>        -0.1548
     20 C16         9.8456    0.0993   -4.1176 C.ar      1 <0>         0.0956
     21 C17         9.7431    1.3102   -3.4542 C.ar      1 <0>        -0.1587
     22 C18         9.2924    1.3460   -2.1483 C.ar      1 <0>        -0.0777
     23 F1         10.2817    0.0635   -5.3958 F         1 <0>        -0.1436
     24 C19         3.7397    3.4977   -0.0143 C.2       1 <0>         0.5972
     25 O3          3.7820    4.0996    1.0418 O.2       1 <0>        -0.5449
     26 N3          3.7666    4.1764   -1.1783 N.am      1 <0>        -0.6151
     27 C20         3.7104    3.4705   -2.4682 C.3       1 <0>         0.0772
     28 C21         2.6132    4.1137   -3.3240 C.3       1 <0>         0.0480
     29 O4          2.8286    5.5258   -3.3820 O.3       1 <0>        -0.3820
     30 C22         2.7483    6.1826   -2.1147 C.3       1 <0>         0.0488
     31 C23         3.8468    5.6456   -1.1969 C.3       1 <0>         0.0756
     32 H1         -0.9582    1.9176    0.0260 H         1 <0>         0.1254
     33 H2          1.1685    3.1640    0.0075 H         1 <0>         0.1199
     34 H3         -0.9339   -0.5429    0.0084 H         1 <0>         0.1475
     35 H4          6.5117    2.2026   -0.9395 H         1 <0>         0.0782
     36 H5          6.5283    2.1930    0.8477 H         1 <0>         0.0843
     37 H6          8.9198    1.0599    0.4396 H         1 <0>         0.0851
     38 H7          8.7480   -0.7117    0.4305 H         1 <0>         0.0924
     39 H8          8.7873   -1.9532   -1.6568 H         1 <0>         0.1390
     40 H9          9.5810   -2.0202   -3.9864 H         1 <0>         0.1343
     41 H10        10.0118    2.2268   -3.9583 H         1 <0>         0.1328
     42 H11         9.2081    2.2909   -1.6320 H         1 <0>         0.1304
     43 H12         4.6707    3.5574   -2.9765 H         1 <0>         0.0729
     44 H13         3.4767    2.4190   -2.3014 H         1 <0>         0.1040
     45 H14         2.6469    3.6986   -4.3313 H         1 <0>         0.1049
     46 H15         1.6389    3.9120   -2.8787 H         1 <0>         0.0568
     47 H16         2.8792    7.2559   -2.2520 H         1 <0>         0.1030
     48 H17         1.7746    5.9884   -1.6650 H         1 <0>         0.0538
     49 H18         3.7034    6.0339   -0.1885 H         1 <0>         0.0992
     50 H19         4.8211    5.9553   -1.5750 H         1 <0>         0.0714
@<TRIPOS>BOND
     1    1   10 ar
     2    1    2 ar
     3    1   32 1
     4    2    3 ar
     5    2   33 1
     6    3    8 ar
     7    3    4 ar
     8    4    5 ar
     9    4   24 1
    10    5   15 1
    11    5    6 ar
    12    6    7 ar
    13    6   12 1
    14    7    8 ar
    15    7   11 1
    16    8    9 ar
    17    9   10 ar
    18   10   34 1
    19   12   13 2
    20   12   14 am
    21   14   15 1
    22   14   16 1
    23   15   35 1
    24   15   36 1
    25   16   17 1
    26   16   37 1
    27   16   38 1
    28   17   22 ar
    29   17   18 ar
    30   18   19 ar
    31   18   39 1
    32   19   20 ar
    33   19   40 1
    34   20   21 ar
    35   20   23 1
    36   21   22 ar
    37   21   41 1
    38   22   42 1
    39   24   25 2
    40   24   26 am
    41   26   31 1
    42   26   27 1
    43   27   28 1
    44   27   43 1
    45   27   44 1
    46   28   29 1
    47   28   45 1
    48   28   46 1
    49   29   30 1
    50   30   31 1
    51   30   47 1
    52   30   48 1
    53   31   49 1
    54   31   50 1
@<TRIPOS>MOLECULE
CHEMBL209854__1
   51    55     0     0     0
SMALL
USER_CHARGES

@<TRIPOS>ATOM
      1 C1         -0.0168    1.3885    0.0097 C.ar      1 <0>        -0.1426
      2 C2          1.1613    2.0840    0.0022 C.ar      1 <0>        -0.0666
      3 C3          2.3594    1.3552   -0.0132 C.ar      1 <0>        -0.0393
      4 C4          3.6592    2.0272   -0.0209 C.ar      1 <0>        -0.1029
      5 C5          4.8099    1.2627   -0.0351 C.ar      1 <0>        -0.0306
      6 C6          4.7464   -0.1386   -0.0420 C.ar      1 <0>        -0.1861
      7 C7          3.5148   -0.7942   -0.0337 C.ar      1 <0>         0.2497
      8 C8          2.3090   -0.0572   -0.0203 C.ar      1 <0>         0.0961
      9 N1          1.1265   -0.6778   -0.0120 N.ar      1 <0>        -0.4443
     10 C9          0.0021   -0.0041    0.0020 C.ar      1 <0>         0.1300
     11 O1          3.4745   -2.1461   -0.0410 O.3       1 <0>        -0.4642
     12 C10         6.1264   -0.6585   -0.0576 C.2       1 <0>         0.5699
     13 O2          6.4231   -1.8376   -0.0671 O.2       1 <0>        -0.5028
     14 N2          7.0093    0.3536   -0.0604 N.am      1 <0>        -0.6088
     15 C11         6.2754    1.6236   -0.0467 C.3       1 <0>         0.1401
     16 C12         8.4674    0.2123   -0.0751 C.3       1 <0>         0.1784
     17 C13         8.9538    0.1724   -1.5009 C.ar      1 <0>        -0.1298
     18 C14         9.0557   -1.0373   -2.1623 C.ar      1 <0>        -0.0634
     19 C15         9.5012   -1.0751   -3.4700 C.ar      1 <0>        -0.1547
     20 C16         9.8456    0.0993   -4.1176 C.ar      1 <0>         0.1072
     21 C17         9.7431    1.3102   -3.4542 C.ar      1 <0>        -0.1571
     22 C18         9.2924    1.3460   -2.1483 C.ar      1 <0>        -0.0745
     23 F1         10.2817    0.0635   -5.3958 F         1 <0>        -0.1374
     24 C19         3.7397    3.4977   -0.0143 C.2       1 <0>         0.5708
     25 O3          3.7820    4.0996    1.0418 O.2       1 <0>        -0.5165
     26 N3          3.7666    4.1764   -1.1783 N.am      1 <0>        -0.6070
     27 C20         3.7104    3.4705   -2.4682 C.3       1 <0>         0.0701
     28 C21         2.6132    4.1137   -3.3240 C.3       1 <0>         0.0480
     29 O4          2.8286    5.5258   -3.3820 O.3       1 <0>        -0.3746
     30 C22         2.7483    6.1826   -2.1147 C.3       1 <0>         0.0468
     31 C23         3.8468    5.6456   -1.1969 C.3       1 <0>         0.0746
     32 H1         -0.9582    1.9176    0.0260 H         1 <0>         0.1489
     33 H2          1.1685    3.1640    0.0075 H         1 <0>         0.1401
     34 H3         -0.9339   -0.5429    0.0084 H         1 <0>         0.1709
     35 H4          3.4715   -2.5443    0.8402 H         1 <0>         0.4072
     36 H5          6.5117    2.2026   -0.9395 H         1 <0>         0.0989
     37 H6          6.5283    2.1930    0.8477 H         1 <0>         0.1055
     38 H7          8.9198    1.0599    0.4396 H         1 <0>         0.0980
     39 H8          8.7480   -0.7117    0.4305 H         1 <0>         0.1019
     40 H9          8.7873   -1.9532   -1.6568 H         1 <0>         0.1382
     41 H10         9.5810   -2.0202   -3.9864 H         1 <0>         0.1380
     42 H11        10.0118    2.2268   -3.9583 H         1 <0>         0.1373
     43 H12         9.2081    2.2909   -1.6320 H         1 <0>         0.1324
     44 H13         4.6707    3.5574   -2.9765 H         1 <0>         0.0851
     45 H14         3.4767    2.4190   -2.3014 H         1 <0>         0.0935
     46 H15         2.6469    3.6986   -4.3313 H         1 <0>         0.1106
     47 H16         1.6389    3.9120   -2.8787 H         1 <0>         0.0576
     48 H17         2.8792    7.2559   -2.2520 H         1 <0>         0.1119
     49 H18         1.7746    5.9884   -1.6650 H         1 <0>         0.0571
     50 H19         3.7034    6.0339   -0.1885 H         1 <0>         0.1060
     51 H20         4.8211    5.9553   -1.5750 H         1 <0>         0.0825
@<TRIPOS>BOND
     1    1   10 ar
     2    1    2 ar
     3    1   32 1
     4    2    3 ar
     5    2   33 1
     6    3    8 ar
     7    3    4 ar
     8    4    5 ar
     9    4   24 1
    10    5   15 1
    11    5    6 ar
    12    6    7 ar
    13    6   12 1
    14    7    8 ar
    15    7   11 1
    16    8    9 ar
    17    9   10 ar
    18   10   34 1
    19   11   35 1
    20   12   13 2
    21   12   14 am
    22   14   15 1
    23   14   16 1
    24   15   36 1
    25   15   37 1
    26   16   17 1
    27   16   38 1
    28   16   39 1
    29   17   22 ar
    30   17   18 ar
    31   18   19 ar
    32   18   40 1
    33   19   20 ar
    34   19   41 1
    35   20   21 ar
    36   20   23 1
    37   21   22 ar
    38   21   42 1
    39   22   43 1
    40   24   25 2
    41   24   26 am
    42   26   31 1
    43   26   27 1
    44   27   28 1
    45   27   44 1
    46   27   45 1
    47   28   29 1
    48   28   46 1
    49   28   47 1
    50   29   30 1
    51   30   31 1
    52   30   48 1
    53   30   49 1
    54   31   50 1
    55   31   51 1
@<TRIPOS>MOLECULE
CHEMBL179
   69    73     0     0     0
SMALL
USER_CHARGES

@<TRIPOS>ATOM
      1 C1         -4.0948   -0.4756   -1.4024 C.3       1 <0>        -0.1579
      2 C2         -2.7620   -1.1465   -1.0640 C.3       1 <0>         0.0600
      3 H1         -2.9480   -2.0596   -0.4985 H         1 <0>         0.0885
      4 C3         -2.0200   -1.4897   -2.3583 C.3       1 <0>         0.0561
      5 H2         -2.6066   -2.2038   -2.9361 H         1 <0>         0.0928
      6 C4         -0.6613   -2.1057   -2.0108 C.3       1 <0>         0.0380
      7 H3         -0.8122   -3.0391   -1.4683 H         1 <0>         0.1609
      8 C5          0.1226   -1.1244   -1.1339 C.3       1 <0>        -0.1546
      9 C6         -0.7022   -0.7954    0.1131 C.3       1 <0>         0.2484
     10 H4         -0.1678   -0.0645    0.7200 H         1 <0>         0.1224
     11 O1         -1.9650   -0.2553   -0.2812 O.3       1 <0>        -0.3671
     12 O2         -0.9102   -1.9864    0.8749 O.3       1 <0>        -0.3662
     13 C7         -1.4066   -1.7531    2.1944 C.3       1 <0>         0.1468
     14 H5         -1.1085   -0.7563    2.5192 H         1 <0>         0.0833
     15 C8         -2.9309   -1.8434    2.1818 C.3       1 <0>        -0.1235
     16 C9         -3.4275   -1.8074    3.6322 C.3       1 <0>         0.1050
     17 C10        -3.0311   -3.1183    4.3077 C.3       1 <0>        -0.1045
     18 C11        -1.5644   -3.3991    4.1043 C.ar      1 <0>        -0.0387
     19 C12        -0.8218   -2.7770    3.1333 C.ar      1 <0>        -0.0890
     20 C13         0.5375   -3.0831    2.9859 C.ar      1 <0>         0.1761
     21 C14         1.1478   -4.0166    3.8208 C.ar      1 <0>        -0.1335
     22 C15         0.3849   -4.6537    4.8202 C.ar      1 <0>        -0.1265
     23 C16        -0.9644   -4.3382    4.9536 C.ar      1 <0>         0.1593
     24 O3         -1.7048   -4.9469    5.9130 O.3       1 <0>        -0.4685
     25 C17         1.0160   -5.6413    5.7123 C.2       1 <0>         0.4339
     26 O4          0.3586   -6.1908    6.5749 O.2       1 <0>        -0.4028
     27 C18         2.4502   -5.9626    5.5569 C.ar      1 <0>        -0.0827
     28 C19         3.0555   -6.8933    6.3950 C.ar      1 <0>        -0.1038
     29 C20         4.4004   -7.1897    6.2460 C.ar      1 <0>        -0.0526
     30 C21         5.1516   -6.5687    5.2689 C.ar      1 <0>        -0.1899
     31 C22         4.5665   -5.6351    4.4192 C.ar      1 <0>         0.1794
     32 C23         3.2100   -5.3257    4.5583 C.ar      1 <0>        -0.1646
     33 C24         2.5773   -4.3383    3.6651 C.2       1 <0>         0.4367
     34 O5          3.2345   -3.7894    2.8014 O.2       1 <0>        -0.4023
     35 O6          5.3087   -5.0274    3.4608 O.3       1 <0>        -0.2855
     36 C25         6.6877   -5.3930    3.3790 C.3       1 <0>         0.0182
     37 O7          1.2651   -2.4659    2.0221 O.3       1 <0>        -0.4659
     38 C26        -2.7921   -0.6496    4.3579 C.2       1 <0>         0.3177
     39 O8         -1.7988   -0.8250    5.0219 O.2       1 <0>        -0.3979
     40 C27        -3.3962    0.7272    4.2551 C.3       1 <0>         0.0302
     41 O9         -2.6194    1.6470    5.0249 O.3       1 <0>        -0.5553
     42 O10        -4.8494   -1.6666    3.6510 O.3       1 <0>        -0.5347
     43 N1          0.0885   -2.3709   -3.2459 N.4       1 <0>        -0.6316
     44 O11        -1.8241   -0.3005   -3.1261 O.3       1 <0>        -0.5642
     45 H6         -3.9086    0.4375   -1.9678 H         1 <0>         0.0712
     46 H7         -4.7024   -1.1554   -1.9998 H         1 <0>         0.0809
     47 H8         -4.6228   -0.2310   -0.4808 H         1 <0>         0.0830
     48 H9          1.0683   -1.5774   -0.8361 H         1 <0>         0.1157
     49 H10         0.3163   -0.2098   -1.6943 H         1 <0>         0.1170
     50 H11        -3.3444   -0.9988    1.6308 H         1 <0>         0.0996
     51 H12        -3.2397   -2.7767    1.7108 H         1 <0>         0.0981
     52 H13        -3.2389   -3.0492    5.3755 H         1 <0>         0.1028
     53 H14        -3.6155   -3.9333    3.8808 H         1 <0>         0.1084
     54 H15        -2.1251   -5.7682    5.6235 H         1 <0>         0.3999
     55 H16         2.4764   -7.3850    7.1627 H         1 <0>         0.1476
     56 H17         4.8650   -7.9126    6.9001 H         1 <0>         0.1446
     57 H18         6.1994   -6.8083    5.1636 H         1 <0>         0.1449
     58 H19         7.1816   -5.1616    4.3227 H         1 <0>         0.0616
     59 H20         6.7690   -6.4614    3.1788 H         1 <0>         0.0607
     60 H21         7.1644   -4.8351    2.5731 H         1 <0>         0.1073
     61 H22         1.6201   -1.6063    2.2872 H         1 <0>         0.3912
     62 H23        -3.4049    1.0432    3.2119 H         1 <0>         0.0830
     63 H24        -4.4170    0.7055    4.6367 H         1 <0>         0.0876
     64 H25        -2.9510    2.5551    5.0046 H         1 <0>         0.3909
     65 H26        -5.2300   -1.6369    4.5395 H         1 <0>         0.3918
     66 H27         0.2300   -1.5058   -3.7457 H         1 <0>         0.4403
     67 H28         0.9832   -2.7766   -3.0157 H         1 <0>         0.4383
     68 H29        -2.6447    0.1448   -3.3777 H         1 <0>         0.4076
     69 H30        -0.4328   -3.0123   -3.8246 H         1 <0>         0.4358
@<TRIPOS>BOND
     1    1    2 1
     2    1   45 1
     3    1   46 1
     4    1   47 1
     5    2    3 1
     6    2   11 1
     7    2    4 1
     8    4    5 1
     9    4    6 1
    10    4   44 1
    11    6    7 1
    12    6    8 1
    13    6   43 1
    14    8    9 1
    15    8   48 1
    16    8   49 1
    17    9   10 1
    18    9   11 1
    19    9   12 1
    20   12   13 1
    21   13   14 1
    22   13   19 1
    23   13   15 1
    24   15   16 1
    25   15   50 1
    26   15   51 1
    27   16   17 1
    28   16   38 1
    29   16   42 1
    30   17   18 1
    31   17   52 1
    32   17   53 1
    33   18   23 ar
    34   18   19 ar
    35   19   20 ar
    36   20   21 ar
    37   20   37 1
    38   21   33 1
    39   21   22 ar
    40   22   23 ar
    41   22   25 1
    42   23   24 1
    43   24   54 1
    44   25   26 2
    45   25   27 1
    46   27   32 ar
    47   27   28 ar
    48   28   29 ar
    49   28   55 1
    50   29   30 ar
    51   29   56 1
    52   30   31 ar
    53   30   57 1
    54   31   32 ar
    55   31   35 1
    56   32   33 1
    57   33   34 2
    58   35   36 1
    59   36   58 1
    60   36   59 1
    61   36   60 1
    62   37   61 1
    63   38   39 2
    64   38   40 1
    65   40   41 1
    66   40   62 1
    67   40   63 1
    68   41   64 1
    69   42   65 1
    70   43   66 1
    71   43   67 1
    72   43   69 1
    73   44   68 1
@<TRIPOS>MOLECULE
CHEMBL312608
   36    38     0     0     0
SMALL
USER_CHARGES

@<TRIPOS>ATOM
      1 C1         -0.0166    1.4025   -0.0210 C.ar      1 <0>        -0.1474
      2 C2          1.1455    2.1020   -0.0382 C.ar      1 <0>        -0.0364
      3 C3          2.3878    1.4390   -0.0560 C.ar      1 <0>        -0.1512
      4 C4          2.4445    0.0464   -0.0563 C.ar      1 <0>         0.1716
      5 C5          1.2401   -0.6959   -0.0381 C.ar      1 <0>         0.0883
      6 C6          0.0024   -0.0038   -0.0203 C.ar      1 <0>        -0.0629
      7 C7         -1.1951   -0.7444   -0.0031 C.ar      1 <0>        -0.0667
      8 C8         -1.1134   -2.1067   -0.0038 C.ar      1 <0>        -0.1278
      9 C9          0.1445   -2.7299   -0.0214 C.ar      1 <0>         0.0821
     10 N1          1.2602   -2.0268   -0.0384 N.ar      1 <0>        -0.4201
     11 C10         0.2202   -4.2095   -0.0215 C.2       1 <0>         0.5825
     12 O1         -0.7997   -4.8702   -0.0064 O.2       1 <0>        -0.5180
     13 N2          1.4203   -4.8228   -0.0383 N.am      1 <0>        -0.6556
     14 C11         1.4950   -6.2173    0.0592 C.ar      1 <0>         0.1585
     15 C12         2.5455   -6.8099    0.7476 C.ar      1 <0>        -0.1330
     16 C13         2.6208   -8.1861    0.8448 C.ar      1 <0>        -0.1100
     17 C14         1.6481   -8.9780    0.2559 C.ar      1 <0>         0.0612
     18 C15         0.5939   -8.3873   -0.4342 C.ar      1 <0>         0.0987
     19 C16         0.5158   -7.0077   -0.5275 C.ar      1 <0>        -0.1344
     20 O2         -0.3610   -9.1637   -1.0128 O.3       1 <0>        -0.4866
     21 O3          1.7239  -10.3331    0.3521 O.3       1 <0>        -0.4878
     22 O4          3.6392   -0.5892   -0.0744 O.3       1 <0>        -0.4520
     23 C17         3.6330    2.2208   -0.0749 C.2       1 <0>         0.5200
     24 O5          3.5877    3.4436   -0.0750 O.co2     1 <0>        -0.6854
     25 O6          4.7145    1.6487   -0.0904 O.co2     1 <0>        -0.6630
     26 H1         -0.9602    1.9276   -0.0033 H         1 <0>         0.1307
     27 H2          1.1177    3.1817   -0.0385 H         1 <0>         0.1406
     28 H3         -2.1537   -0.2471    0.0106 H         1 <0>         0.1449
     29 H4         -2.0135   -2.7034    0.0095 H         1 <0>         0.1455
     30 H5          2.2321   -4.2979   -0.1179 H         1 <0>         0.4277
     31 H6          3.3046   -6.1943    1.2073 H         1 <0>         0.1374
     32 H7          3.4389   -8.6452    1.3800 H         1 <0>         0.1384
     33 H8         -0.3038   -6.5473   -1.0591 H         1 <0>         0.1512
     34 H9         -1.1104   -9.3618   -0.4346 H         1 <0>         0.3878
     35 H10         1.2728  -10.6983    1.1256 H         1 <0>         0.3839
     36 H11         3.9999   -0.7736    0.8037 H         1 <0>         0.3876
@<TRIPOS>BOND
     1    1    6 ar
     2    1    2 ar
     3    1   26 1
     4    2    3 ar
     5    2   27 1
     6    3    4 ar
     7    3   23 1
     8    4    5 ar
     9    4   22 1
    10    5   10 ar
    11    5    6 ar
    12    6    7 ar
    13    7    8 ar
    14    7   28 1
    15    8    9 ar
    16    8   29 1
    17    9   10 ar
    18    9   11 1
    19   11   12 2
    20   11   13 am
    21   13   14 1
    22   13   30 1
    23   14   19 ar
    24   14   15 ar
    25   15   16 ar
    26   15   31 1
    27   16   17 ar
    28   16   32 1
    29   17   18 ar
    30   17   21 1
    31   18   19 ar
    32   18   20 1
    33   19   33 1
    34   20   34 1
    35   21   35 1
    36   22   36 1
    37   23   24 2
    38   23   25 1
@<TRIPOS>MOLECULE
CHEMBL368084
   34    36     0     0     0
SMALL
USER_CHARGES

@<TRIPOS>ATOM
      1 C1         -0.0167    1.3782    0.0096 C.ar      1 <0>        -0.0755
      2 C2          1.1703    2.0860    0.0021 C.ar      1 <0>        -0.1508
      3 C3          2.3786    1.4101   -0.0131 C.ar      1 <0>         0.0990
      4 C4          2.3962    0.0256   -0.0207 C.ar      1 <0>        -0.1547
      5 C5          1.2079   -0.6800   -0.0132 C.ar      1 <0>        -0.0791
      6 C6          0.0021   -0.0041    0.0020 C.ar      1 <0>        -0.0995
      7 C7         -1.2930   -0.7747    0.0103 C.3       1 <0>        -0.0028
      8 C8         -1.7382   -1.0239   -1.4077 C.2       1 <0>         0.0269
      9 C9         -1.4113   -2.1032   -2.1550 C.2       1 <0>        -0.2182
     10 C10        -2.0277   -1.9457   -3.4034 C.2       1 <0>        -0.1164
     11 C11        -2.7159   -0.7499   -3.3534 C.2       1 <0>        -0.0951
     12 O1         -2.5254   -0.2159   -2.1279 O.3       1 <0>        -0.1440
     13 C12        -3.4856   -0.1874   -4.3966 C.2       1 <0>         0.4239
     14 C13        -4.1826    1.1328   -4.1913 C.3       1 <0>        -0.1923
     15 C14        -4.9291    1.5072   -5.4457 C.2       1 <0>         0.4535
     16 O2         -4.8981    0.7742   -6.4112 O.2       1 <0>        -0.4456
     17 C15        -5.6958    2.7624   -5.4990 C.2       1 <0>        -0.0265
     18 N1         -6.4087    3.2125   -6.5497 N.2       1 <0>        -0.5315
     19 C16        -6.9376    4.3562   -6.1989 C.2       1 <0>         0.0532
     20 N2         -6.5532    4.6137   -4.9341 N.2       1 <0>        -0.3754
     21 N3         -5.8113    3.6426   -4.5257 N.2       1 <0>        -0.3109
     22 O3         -3.5853   -0.7680   -5.4586 O.2       1 <0>        -0.3990
     23 F1          3.5396    2.1009   -0.0209 F         1 <0>        -0.1401
     24 H1         -0.9592    1.9052    0.0260 H         1 <0>         0.1386
     25 H2          1.1554    3.1659    0.0077 H         1 <0>         0.1385
     26 H3          3.3381   -0.5027   -0.0329 H         1 <0>         0.1359
     27 H4          1.2213   -1.7599   -0.0195 H         1 <0>         0.1342
     28 H5         -1.1453   -1.7280    0.5176 H         1 <0>         0.1099
     29 H6         -2.0553   -0.1984    0.5345 H         1 <0>         0.1004
     30 H7         -0.7905   -2.9316   -1.8469 H         1 <0>         0.1551
     31 H8         -1.9744   -2.6259   -4.2406 H         1 <0>         0.1607
     32 H9         -4.8851    1.0477   -3.3622 H         1 <0>         0.1294
     33 H10        -7.5686    4.9816   -6.8130 H         1 <0>         0.1692
     34 H11        -3.4444    1.9020   -3.9645 H         1 <0>         0.1289
@<TRIPOS>BOND
     1    1    6 ar
     2    1    2 ar
     3    1   24 1
     4    2    3 ar
     5    2   25 1
     6    3    4 ar
     7    3   23 1
     8    4    5 ar
     9    4   26 1
    10    5    6 ar
    11    5   27 1
    12    6    7 1
    13    7    8 1
    14    7   28 1
    15    7   29 1
    16    8   12 1
    17    8    9 2
    18    9   10 1
    19    9   30 1
    20   10   11 2
    21   10   31 1
    22   11   12 1
    23   11   13 1
    24   13   14 1
    25   13   22 2
    26   14   32 1
    27   14   34 1
    28   14   15 1
    29   15   17 1
    30   15   16 2
    31   17   21 2
    32   17   18 1
    33   18   19 2
    34   19   20 1
    35   19   33 1
    36   20   21 1
@<TRIPOS>MOLECULE
CHEMBL368084__1
   35    37     0     0     0
SMALL
USER_CHARGES

@<TRIPOS>ATOM
      1 C1         -0.0167    1.3782    0.0096 C.ar      1 <0>        -0.0770
      2 C2          1.1703    2.0860    0.0021 C.ar      1 <0>        -0.1523
      3 C3          2.3786    1.4101   -0.0131 C.ar      1 <0>         0.1027
      4 C4          2.3962    0.0256   -0.0207 C.ar      1 <0>        -0.1528
      5 C5          1.2079   -0.6800   -0.0132 C.ar      1 <0>        -0.0773
      6 C6          0.0021   -0.0041    0.0020 C.ar      1 <0>        -0.1034
      7 C7         -1.2930   -0.7747    0.0103 C.3       1 <0>        -0.0046
      8 C8         -1.7382   -1.0239   -1.4077 C.2       1 <0>         0.0419
      9 C9         -1.4113   -2.1032   -2.1550 C.2       1 <0>        -0.2194
     10 C10        -2.0277   -1.9457   -3.4034 C.2       1 <0>        -0.0985
     11 C11        -2.7159   -0.7499   -3.3534 C.2       1 <0>        -0.1154
     12 O1         -2.5254   -0.2159   -2.1279 O.3       1 <0>        -0.1483
     13 C12        -3.4856   -0.1874   -4.3966 C.2       1 <0>         0.4296
     14 C13        -4.1826    1.1328   -4.1913 C.3       1 <0>        -0.1903
     15 C14        -4.9291    1.5072   -5.4457 C.2       1 <0>         0.4461
     16 O2         -4.8981    0.7742   -6.4112 O.2       1 <0>        -0.3894
     17 C15        -5.6958    2.7624   -5.4990 C.2       1 <0>         0.1148
     18 N1         -5.8088    3.6656   -4.5057 N.2       1 <0>        -0.4752
     19 C16        -6.5700    4.6338   -4.9461 C.2       1 <0>         0.2011
     20 N2         -6.9274    4.3311   -6.2088 N.pl3     1 <0>        -0.3982
     21 H1         -7.4920    4.8720   -6.7829 H         1 <0>         0.4546
     22 N3         -6.3886    3.2051   -6.5282 N.2       1 <0>        -0.2471
     23 O3         -3.5853   -0.7680   -5.4586 O.2       1 <0>        -0.4024
     24 F1          3.5396    2.1009   -0.0209 F         1 <0>        -0.1377
     25 H2         -0.9592    1.9052    0.0260 H         1 <0>         0.1363
     26 H3          1.1554    3.1659    0.0077 H         1 <0>         0.1383
     27 H4          3.3381   -0.5027   -0.0329 H         1 <0>         0.1381
     28 H5          1.2213   -1.7599   -0.0195 H         1 <0>         0.1355
     29 H6         -1.1453   -1.7280    0.5176 H         1 <0>         0.1131
     30 H7         -2.0553   -0.1984    0.5345 H         1 <0>         0.1011
     31 H8         -0.7905   -2.9316   -1.8469 H         1 <0>         0.1591
     32 H9         -1.9744   -2.6259   -4.2406 H         1 <0>         0.1632
     33 H10        -4.8851    1.0477   -3.3622 H         1 <0>         0.1408
     34 H11        -6.8599    5.5169   -4.3961 H         1 <0>         0.2327
     35 H12        -3.4444    1.9020   -3.9645 H         1 <0>         0.1404
@<TRIPOS>BOND
     1    1    6 ar
     2    1    2 ar
     3    1   25 1
     4    2    3 ar
     5    2   26 1
     6    3    4 ar
     7    3   24 1
     8    4    5 ar
     9    4   27 1
    10    5    6 ar
    11    5   28 1
    12    6    7 1
    13    7    8 1
    14    7   29 1
    15    7   30 1
    16    8   12 1
    17    8    9 2
    18    9   10 1
    19    9   31 1
    20   10   11 2
    21   10   32 1
    22   11   12 1
    23   11   13 1
    24   13   14 1
    25   13   23 2
    26   14   33 1
    27   14   35 1
    28   14   15 1
    29   15   17 1
    30   15   16 2
    31   17   22 2
    32   17   18 1
    33   18   19 2
    34   19   20 1
    35   19   34 1
    36   20   21 1
    37   20   22 1
@<TRIPOS>MOLECULE
CHEMBL211110
   51    55     0     0     0
SMALL
USER_CHARGES

@<TRIPOS>ATOM
      1 C1         -0.0167    1.3821    0.0096 C.ar      1 <0>        -0.0762
      2 C2          1.1937    2.0586    0.0017 C.ar      1 <0>        -0.1704
      3 C3          2.3701    1.3338   -0.0134 C.ar      1 <0>         0.0997
      4 N1          2.3500    0.0151   -0.0207 N.ar      1 <0>        -0.4685
      5 C4          1.2181   -0.6611   -0.0136 C.ar      1 <0>         0.1121
      6 C5          0.0021   -0.0041    0.0020 C.ar      1 <0>        -0.1538
      7 C6          1.2505   -2.1677   -0.0230 C.3       1 <0>         0.1706
      8 N2          1.3677   -2.6450   -1.4031 N.am      1 <0>        -0.7239
      9 C7          1.4153   -3.9678   -1.6569 C.2       1 <0>         0.5960
     10 O1          1.3609   -4.7653   -0.7402 O.2       1 <0>        -0.5447
     11 C8          1.5331   -4.4476   -3.0443 C.ar      1 <0>        -0.2758
     12 C9          2.8495   -4.6687   -3.6436 C.ar      1 <0>         0.0089
     13 C10         4.0289   -4.4334   -2.9213 C.ar      1 <0>        -0.1064
     14 C11         5.2241   -4.6627   -3.5456 C.ar      1 <0>        -0.1486
     15 C12         5.2407   -5.1170   -4.8626 C.ar      1 <0>         0.0540
     16 N3          4.1341   -5.3338   -5.5305 N.ar      1 <0>        -0.4154
     17 C13         2.9358   -5.1293   -4.9767 C.ar      1 <0>         0.0599
     18 C14         1.7494   -5.3671   -5.7066 C.ar      1 <0>         0.3720
     19 C15         0.5014   -5.1502   -5.1214 C.ar      1 <0>        -0.3635
     20 C16         0.4021   -4.7009   -3.7964 C.ar      1 <0>         0.0430
     21 C17        -1.0721   -4.5877   -3.4932 C.3       1 <0>         0.1487
     22 N4         -1.7734   -5.0047   -4.7122 N.am      1 <0>        -0.6306
     23 C18        -0.8648   -5.3163   -5.6512 C.2       1 <0>         0.5817
     24 O2         -1.1314   -5.6998   -6.7739 O.2       1 <0>        -0.5350
     25 C19        -3.2275   -5.0562   -4.8833 C.3       1 <0>         0.1801
     26 C20        -3.7192   -3.7308   -5.4053 C.ar      1 <0>        -0.1144
     27 C21        -4.0850   -2.7330   -4.5212 C.ar      1 <0>        -0.0778
     28 C22        -4.5356   -1.5170   -4.9988 C.ar      1 <0>        -0.1592
     29 C23        -4.6206   -1.2982   -6.3633 C.ar      1 <0>         0.0949
     30 C24        -4.2539   -2.2983   -7.2479 C.ar      1 <0>        -0.1548
     31 C25        -3.7986   -3.5117   -6.7680 C.ar      1 <0>        -0.0630
     32 F1         -5.0614   -0.1099   -6.8313 F         1 <0>        -0.1439
     33 O3          1.8242   -5.8081   -6.9830 O.3       1 <0>        -0.6025
     34 H1         -0.9518    1.9222    0.0259 H         1 <0>         0.1356
     35 H2          1.2167    3.1384    0.0069 H         1 <0>         0.1351
     36 H3          3.3170    1.8532   -0.0197 H         1 <0>         0.1571
     37 H4         -0.9217   -0.5635    0.0082 H         1 <0>         0.1377
     38 H5          2.1058   -2.5163    0.5559 H         1 <0>         0.0832
     39 H6          0.3315   -2.5537    0.4181 H         1 <0>         0.0820
     40 H7          1.4111   -2.0090   -2.1342 H         1 <0>         0.4022
     41 H8          3.9941   -4.0809   -1.9011 H         1 <0>         0.1238
     42 H9          6.1517   -4.4919   -3.0196 H         1 <0>         0.1256
     43 H10         6.1901   -5.2947   -5.3457 H         1 <0>         0.1469
     44 H11        -1.3360   -5.2458   -2.6653 H         1 <0>         0.0853
     45 H12        -1.3264   -3.5564   -3.2487 H         1 <0>         0.0780
     46 H13        -3.4821   -5.8433   -5.5931 H         1 <0>         0.0921
     47 H14        -3.6991   -5.2662   -3.9233 H         1 <0>         0.0856
     48 H15        -4.0190   -2.9040   -3.4569 H         1 <0>         0.1307
     49 H16        -4.8218   -0.7377   -4.3079 H         1 <0>         0.1322
     50 H17        -4.3200   -2.1288   -8.3125 H         1 <0>         0.1342
     51 H18        -3.5082   -4.2903   -7.4578 H         1 <0>         0.1392
@<TRIPOS>BOND
     1    1    6 ar
     2    1    2 ar
     3    1   34 1
     4    2    3 ar
     5    2   35 1
     6    3    4 ar
     7    3   36 1
     8    4    5 ar
     9    5    6 ar
    10    5    7 1
    11    6   37 1
    12    7    8 1
    13    7   38 1
    14    7   39 1
    15    8    9 am
    16    8   40 1
    17    9   10 2
    18    9   11 1
    19   11   20 ar
    20   11   12 ar
    21   12   17 ar
    22   12   13 ar
    23   13   14 ar
    24   13   41 1
    25   14   15 ar
    26   14   42 1
    27   15   16 ar
    28   15   43 1
    29   16   17 ar
    30   17   18 ar
    31   18   19 ar
    32   18   33 1
    33   19   23 1
    34   19   20 ar
    35   20   21 1
    36   21   22 1
    37   21   44 1
    38   21   45 1
    39   22   23 am
    40   22   25 1
    41   23   24 2
    42   25   26 1
    43   25   46 1
    44   25   47 1
    45   26   31 ar
    46   26   27 ar
    47   27   28 ar
    48   27   48 1
    49   28   29 ar
    50   28   49 1
    51   29   30 ar
    52   29   32 1
    53   30   31 ar
    54   30   50 1
    55   31   51 1
@<TRIPOS>MOLECULE
CHEMBL211110__1
   52    56     0     0     0
SMALL
USER_CHARGES

@<TRIPOS>ATOM
      1 C1         -0.0167    1.3821    0.0096 C.ar      1 <0>        -0.0745
      2 C2          1.1937    2.0586    0.0017 C.ar      1 <0>        -0.1625
      3 C3          2.3701    1.3338   -0.0134 C.ar      1 <0>         0.1014
      4 N1          2.3500    0.0151   -0.0207 N.ar      1 <0>        -0.4691
      5 C4          1.2181   -0.6611   -0.0136 C.ar      1 <0>         0.1007
      6 C5          0.0021   -0.0041    0.0020 C.ar      1 <0>        -0.1520
      7 C6          1.2505   -2.1677   -0.0230 C.3       1 <0>         0.1717
      8 N2          1.3677   -2.6450   -1.4031 N.am      1 <0>        -0.7139
      9 C7          1.4153   -3.9678   -1.6569 C.2       1 <0>         0.5696
     10 O1          1.3609   -4.7653   -0.7402 O.2       1 <0>        -0.5156
     11 C8          1.5331   -4.4476   -3.0443 C.ar      1 <0>        -0.1045
     12 C9          2.8495   -4.6687   -3.6436 C.ar      1 <0>        -0.0368
     13 C10         4.0289   -4.4334   -2.9213 C.ar      1 <0>        -0.0642
     14 C11         5.2241   -4.6627   -3.5456 C.ar      1 <0>        -0.1434
     15 C12         5.2407   -5.1170   -4.8626 C.ar      1 <0>         0.1297
     16 N3          4.1341   -5.3338   -5.5305 N.ar      1 <0>        -0.4463
     17 C13         2.9358   -5.1293   -4.9767 C.ar      1 <0>         0.0942
     18 C14         1.7494   -5.3671   -5.7066 C.ar      1 <0>         0.2507
     19 C15         0.5014   -5.1502   -5.1214 C.ar      1 <0>        -0.1884
     20 C16         0.4021   -4.7009   -3.7964 C.ar      1 <0>        -0.0297
     21 C17        -1.0721   -4.5877   -3.4932 C.3       1 <0>         0.1399
     22 N4         -1.7734   -5.0047   -4.7122 N.am      1 <0>        -0.6095
     23 C18        -0.8648   -5.3163   -5.6512 C.2       1 <0>         0.5701
     24 O2         -1.1314   -5.6998   -6.7739 O.2       1 <0>        -0.5037
     25 C19        -3.2275   -5.0562   -4.8833 C.3       1 <0>         0.1785
     26 C20        -3.7192   -3.7308   -5.4053 C.ar      1 <0>        -0.1298
     27 C21        -4.0850   -2.7330   -4.5212 C.ar      1 <0>        -0.0746
     28 C22        -4.5356   -1.5170   -4.9988 C.ar      1 <0>        -0.1576
     29 C23        -4.6206   -1.2982   -6.3633 C.ar      1 <0>         0.1066
     30 C24        -4.2539   -2.2983   -7.2479 C.ar      1 <0>        -0.1546
     31 C25        -3.7986   -3.5117   -6.7680 C.ar      1 <0>        -0.0633
     32 F1         -5.0614   -0.1099   -6.8313 F         1 <0>        -0.1378
     33 O3          1.8242   -5.8081   -6.9830 O.3       1 <0>        -0.4650
     34 H1         -0.9518    1.9222    0.0259 H         1 <0>         0.1387
     35 H2          1.2167    3.1384    0.0069 H         1 <0>         0.1391
     36 H3          3.3170    1.8532   -0.0197 H         1 <0>         0.1602
     37 H4         -0.9217   -0.5635    0.0082 H         1 <0>         0.1381
     38 H5          2.1058   -2.5163    0.5559 H         1 <0>         0.0911
     39 H6          0.3315   -2.5537    0.4181 H         1 <0>         0.0901
     40 H7          1.4111   -2.0090   -2.1342 H         1 <0>         0.4055
     41 H8          3.9941   -4.0809   -1.9011 H         1 <0>         0.1441
     42 H9          6.1517   -4.4919   -3.0196 H         1 <0>         0.1489
     43 H10         6.1901   -5.2947   -5.3457 H         1 <0>         0.1701
     44 H11        -1.3360   -5.2458   -2.6653 H         1 <0>         0.1065
     45 H12        -1.3264   -3.5564   -3.2487 H         1 <0>         0.0988
     46 H13        -3.4821   -5.8433   -5.5931 H         1 <0>         0.1015
     47 H14        -3.6991   -5.2662   -3.9233 H         1 <0>         0.0985
     48 H15        -4.0190   -2.9040   -3.4569 H         1 <0>         0.1327
     49 H16        -4.8218   -0.7377   -4.3079 H         1 <0>         0.1368
     50 H17        -4.3200   -2.1288   -8.3125 H         1 <0>         0.1379
     51 H18        -3.5082   -4.2903   -7.4578 H         1 <0>         0.1385
     52 H19         1.8362   -6.7715   -7.0663 H         1 <0>         0.4068
@<TRIPOS>BOND
     1    1    6 ar
     2    1    2 ar
     3    1   34 1
     4    2    3 ar
     5    2   35 1
     6    3    4 ar
     7    3   36 1
     8    4    5 ar
     9    5    6 ar
    10    5    7 1
    11    6   37 1
    12    7    8 1
    13    7   38 1
    14    7   39 1
    15    8    9 am
    16    8   40 1
    17    9   10 2
    18    9   11 1
    19   11   20 ar
    20   11   12 ar
    21   12   17 ar
    22   12   13 ar
    23   13   14 ar
    24   13   41 1
    25   14   15 ar
    26   14   42 1
    27   15   16 ar
    28   15   43 1
    29   16   17 ar
    30   17   18 ar
    31   18   19 ar
    32   18   33 1
    33   19   23 1
    34   19   20 ar
    35   20   21 1
    36   21   22 1
    37   21   44 1
    38   21   45 1
    39   22   23 am
    40   22   25 1
    41   23   24 2
    42   25   26 1
    43   25   46 1
    44   25   47 1
    45   26   31 ar
    46   26   27 ar
    47   27   28 ar
    48   27   48 1
    49   28   29 ar
    50   28   49 1
    51   29   30 ar
    52   29   32 1
    53   30   31 ar
    54   30   50 1
    55   31   51 1
    56   33   52 1
@<TRIPOS>MOLECULE
CHEMBL379382
   46    50     0     0     0
SMALL
USER_CHARGES

@<TRIPOS>ATOM
      1 C1         -0.0167    1.3789    0.0096 C.ar      1 <0>        -0.0507
      2 C2          1.1676    2.0933    0.0022 C.ar      1 <0>        -0.1630
      3 C3          2.3795    1.4286   -0.0135 C.ar      1 <0>         0.1470
      4 C4          2.4062    0.0325   -0.0212 C.ar      1 <0>        -0.1264
      5 C5          1.2065   -0.6822   -0.0132 C.ar      1 <0>         0.1474
      6 C6          0.0021   -0.0041    0.0020 C.ar      1 <0>        -0.1628
      7 F1          1.2230   -2.0330   -0.0210 F         1 <0>        -0.1214
      8 C7          3.7008   -0.6870   -0.0385 C.ar      1 <0>        -0.0294
      9 C8          4.3379   -1.0345   -1.3062 C.ar      1 <0>        -0.0448
     10 C9          3.7486   -0.7006   -2.5353 C.ar      1 <0>        -0.0629
     11 C10         4.4025   -1.0575   -3.6821 C.ar      1 <0>        -0.1484
     12 C11         5.6183   -1.7332   -3.6044 C.ar      1 <0>         0.1277
     13 N1          6.1628   -2.0424   -2.4530 N.ar      1 <0>        -0.4469
     14 C12         5.5745   -1.7213   -1.2965 C.ar      1 <0>         0.0960
     15 C13         6.1697   -2.0586   -0.0628 C.ar      1 <0>         0.2394
     16 C14         5.5489   -1.7207    1.1374 C.ar      1 <0>        -0.1831
     17 C15         4.3230   -1.0324    1.1402 C.ar      1 <0>        -0.0444
     18 C16         3.9539   -0.8262    2.5891 C.3       1 <0>         0.1446
     19 N2          5.0361   -1.4264    3.3765 N.am      1 <0>        -0.6099
     20 C17         5.9461   -1.9500    2.5387 C.2       1 <0>         0.5700
     21 O1          6.9634   -2.5178    2.8870 O.2       1 <0>        -0.5051
     22 C18         5.1054   -1.4628    4.8394 C.3       1 <0>         0.1789
     23 C19         4.4390   -2.7172    5.3428 C.ar      1 <0>        -0.1301
     24 C20         3.0871   -2.7128    5.6320 C.ar      1 <0>        -0.0744
     25 C21         2.4748   -3.8626    6.0933 C.ar      1 <0>        -0.1572
     26 C22         3.2158   -5.0194    6.2657 C.ar      1 <0>         0.1067
     27 C23         4.5697   -5.0227    5.9757 C.ar      1 <0>        -0.1548
     28 C24         5.1788   -3.8731    5.5096 C.ar      1 <0>        -0.0636
     29 F2          2.6184   -6.1440    6.7170 F         1 <0>        -0.1377
     30 O2          7.3541   -2.7164   -0.0452 O.3       1 <0>        -0.4658
     31 F3          3.5354    2.1279   -0.0216 F         1 <0>        -0.1221
     32 H1         -0.9606    1.9035    0.0260 H         1 <0>         0.1487
     33 H2          1.1455    3.1731    0.0082 H         1 <0>         0.1484
     34 H3         -0.9265   -0.5555    0.0079 H         1 <0>         0.1483
     35 H4          2.8050   -0.1767   -2.5743 H         1 <0>         0.1407
     36 H5          3.9774   -0.8166   -4.6452 H         1 <0>         0.1469
     37 H6          6.1253   -2.0099   -4.5170 H         1 <0>         0.1687
     38 H7          3.8771    0.2388    2.8083 H         1 <0>         0.1006
     39 H8          3.0095   -1.3238    2.8096 H         1 <0>         0.0970
     40 H9          6.1489   -1.4545    5.1540 H         1 <0>         0.1009
     41 H10         4.5953   -0.5910    5.2491 H         1 <0>         0.0975
     42 H11         2.5094   -1.8102    5.4978 H         1 <0>         0.1324
     43 H12         1.4188   -3.8588    6.3195 H         1 <0>         0.1372
     44 H13         5.1488   -5.9244    6.1101 H         1 <0>         0.1379
     45 H14         6.2339   -3.8766    5.2790 H         1 <0>         0.1382
     46 H15         8.1268   -2.1351   -0.0360 H         1 <0>         0.4039
@<TRIPOS>BOND
     1    1    6 ar
     2    1    2 ar
     3    1   32 1
     4    2    3 ar
     5    2   33 1
     6    3    4 ar
     7    3   31 1
     8    4    5 ar
     9    4    8 1
    10    5    6 ar
    11    5    7 1
    12    6   34 1
    13    8   17 ar
    14    8    9 ar
    15    9   14 ar
    16    9   10 ar
    17   10   11 ar
    18   10   35 1
    19   11   12 ar
    20   11   36 1
    21   12   13 ar
    22   12   37 1
    23   13   14 ar
    24   14   15 ar
    25   15   16 ar
    26   15   30 1
    27   16   20 1
    28   16   17 ar
    29   17   18 1
    30   18   19 1
    31   18   38 1
    32   18   39 1
    33   19   20 am
    34   19   22 1
    35   20   21 2
    36   22   23 1
    37   22   40 1
    38   22   41 1
    39   23   28 ar
    40   23   24 ar
    41   24   25 ar
    42   24   42 1
    43   25   26 ar
    44   25   43 1
    45   26   27 ar
    46   26   29 1
    47   27   28 ar
    48   27   44 1
    49   28   45 1
    50   30   46 1
@<TRIPOS>MOLECULE
CHEMBL379382__1
   45    49     0     0     0
SMALL
USER_CHARGES

@<TRIPOS>ATOM
      1 C1         -0.0167    1.3789    0.0096 C.ar      1 <0>        -0.0732
      2 C2          1.1676    2.0933    0.0022 C.ar      1 <0>        -0.1712
      3 C3          2.3795    1.4286   -0.0135 C.ar      1 <0>         0.1331
      4 C4          2.4062    0.0325   -0.0212 C.ar      1 <0>        -0.0615
      5 C5          1.2065   -0.6822   -0.0132 C.ar      1 <0>         0.1334
      6 C6          0.0021   -0.0041    0.0020 C.ar      1 <0>        -0.1712
      7 F1          1.2230   -2.0330   -0.0210 F         1 <0>        -0.1244
      8 C7          3.7008   -0.6870   -0.0385 C.ar      1 <0>        -0.2127
      9 C8          4.3379   -1.0345   -1.3062 C.ar      1 <0>         0.0040
     10 C9          3.7486   -0.7006   -2.5353 C.ar      1 <0>        -0.1077
     11 C10         4.4025   -1.0575   -3.6821 C.ar      1 <0>        -0.1511
     12 C11         5.6183   -1.7332   -3.6044 C.ar      1 <0>         0.0520
     13 N1          6.1628   -2.0424   -2.4530 N.ar      1 <0>        -0.4149
     14 C12         5.5745   -1.7213   -1.2965 C.ar      1 <0>         0.0608
     15 C13         6.1697   -2.0586   -0.0628 C.ar      1 <0>         0.3677
     16 C14         5.5489   -1.7207    1.1374 C.ar      1 <0>        -0.3640
     17 C15         4.3230   -1.0324    1.1402 C.ar      1 <0>         0.0343
     18 C16         3.9539   -0.8262    2.5891 C.3       1 <0>         0.1520
     19 N2          5.0361   -1.4264    3.3765 N.am      1 <0>        -0.6310
     20 C17         5.9461   -1.9500    2.5387 C.2       1 <0>         0.5817
     21 O1          6.9634   -2.5178    2.8870 O.2       1 <0>        -0.5362
     22 C18         5.1054   -1.4628    4.8394 C.3       1 <0>         0.1806
     23 C19         4.4390   -2.7172    5.3428 C.ar      1 <0>        -0.1149
     24 C20         3.0871   -2.7128    5.6320 C.ar      1 <0>        -0.0776
     25 C21         2.4748   -3.8626    6.0933 C.ar      1 <0>        -0.1588
     26 C22         3.2158   -5.0194    6.2657 C.ar      1 <0>         0.0951
     27 C23         4.5697   -5.0227    5.9757 C.ar      1 <0>        -0.1549
     28 C24         5.1788   -3.8731    5.5096 C.ar      1 <0>        -0.0633
     29 F2          2.6184   -6.1440    6.7170 F         1 <0>        -0.1438
     30 O2          7.3541   -2.7164   -0.0452 O.3       1 <0>        -0.6094
     31 F3          3.5354    2.1279   -0.0216 F         1 <0>        -0.1246
     32 H1         -0.9606    1.9035    0.0260 H         1 <0>         0.1374
     33 H2          1.1455    3.1731    0.0082 H         1 <0>         0.1372
     34 H3         -0.9265   -0.5555    0.0079 H         1 <0>         0.1371
     35 H4          2.8050   -0.1767   -2.5743 H         1 <0>         0.1206
     36 H5          3.9774   -0.8166   -4.6452 H         1 <0>         0.1242
     37 H6          6.1253   -2.0099   -4.5170 H         1 <0>         0.1459
     38 H7          3.8771    0.2388    2.8083 H         1 <0>         0.0799
     39 H8          3.0095   -1.3238    2.8096 H         1 <0>         0.0770
     40 H9          6.1489   -1.4545    5.1540 H         1 <0>         0.0916
     41 H10         4.5953   -0.5910    5.2491 H         1 <0>         0.0847
     42 H11         2.5094   -1.8102    5.4978 H         1 <0>         0.1305
     43 H12         1.4188   -3.8588    6.3195 H         1 <0>         0.1327
     44 H13         5.1488   -5.9244    6.1101 H         1 <0>         0.1342
     45 H14         6.2339   -3.8766    5.2790 H         1 <0>         0.1390
@<TRIPOS>BOND
     1    1    6 ar
     2    1    2 ar
     3    1   32 1
     4    2    3 ar
     5    2   33 1
     6    3    4 ar
     7    3   31 1
     8    4    5 ar
     9    4    8 1
    10    5    6 ar
    11    5    7 1
    12    6   34 1
    13    8   17 ar
    14    8    9 ar
    15    9   14 ar
    16    9   10 ar
    17   10   11 ar
    18   10   35 1
    19   11   12 ar
    20   11   36 1
    21   12   13 ar
    22   12   37 1
    23   13   14 ar
    24   14   15 ar
    25   15   16 ar
    26   15   30 1
    27   16   20 1
    28   16   17 ar
    29   17   18 1
    30   18   19 1
    31   18   38 1
    32   18   39 1
    33   19   20 am
    34   19   22 1
    35   20   21 2
    36   22   23 1
    37   22   40 1
    38   22   41 1
    39   23   28 ar
    40   23   24 ar
    41   24   25 ar
    42   24   42 1
    43   25   26 ar
    44   25   43 1
    45   26   27 ar
    46   26   29 1
    47   27   28 ar
    48   27   44 1
    49   28   45 1
@<TRIPOS>MOLECULE
CHEMBL379974
   52    56     0     0     0
SMALL
USER_CHARGES

@<TRIPOS>ATOM
      1 C1          0.9337    1.3940    0.5770 C.3       1 <0>         0.0743
      2 N1          0.7845   -0.0632    0.5517 N.pl3     1 <0>        -1.0138
      3 C2          0.6467   -0.8072    1.8061 C.3       1 <0>         0.0844
      4 S1          0.7717   -0.8692   -0.8948 S.o2      1 <0>         2.7489
      5 O1          0.0804   -2.0907   -0.6730 O.2       1 <0>        -0.9558
      6 O2          0.3622    0.0700   -1.8795 O.2       1 <0>        -0.9374
      7 O3          2.2128   -1.2373   -1.2176 O.3       1 <0>        -0.6690
      8 C3          2.6817   -2.3027   -0.5159 C.ar      1 <0>         0.0864
      9 C4          3.2475   -2.1116    0.7630 C.ar      1 <0>        -0.0765
     10 C5          3.3385   -0.8293    1.3329 C.ar      1 <0>        -0.0715
     11 C6          3.8977   -0.7126    2.5743 C.ar      1 <0>        -0.1430
     12 C7          4.3582   -1.8479    3.2378 C.ar      1 <0>         0.1379
     13 N2          4.2714   -3.0410    2.7023 N.ar      1 <0>        -0.4397
     14 C8          3.7347   -3.2229    1.4918 C.ar      1 <0>         0.1088
     15 C9          3.6463   -4.5124    0.9263 C.ar      1 <0>         0.2526
     16 C10         3.0833   -4.6726   -0.3363 C.ar      1 <0>        -0.1694
     17 C11         2.6007   -3.5519   -1.0430 C.ar      1 <0>         0.0119
     18 C12         2.0625   -4.0818   -2.3473 C.3       1 <0>         0.1148
     19 C13         2.2046   -3.2836   -3.6415 C.3       1 <0>        -0.1587
     20 C14         0.8270   -3.4651   -2.9996 C.3       1 <0>        -0.1582
     21 N3          2.2643   -5.5316   -2.3243 N.am      1 <0>        -0.5707
     22 C15         2.8595   -5.8686   -1.1669 C.2       1 <0>         0.5783
     23 O4          3.1602   -7.0023   -0.8459 O.2       1 <0>        -0.4954
     24 C16         1.8889   -6.4616   -3.3922 C.3       1 <0>         0.1738
     25 C17         0.5375   -7.0555   -3.0889 C.ar      1 <0>        -0.1292
     26 C18         0.4378   -8.1593   -2.2625 C.ar      1 <0>        -0.0634
     27 C19        -0.8010   -8.7045   -1.9833 C.ar      1 <0>        -0.1546
     28 C20        -1.9426   -8.1449   -2.5317 C.ar      1 <0>         0.1081
     29 C21        -1.8415   -7.0395   -3.3592 C.ar      1 <0>        -0.1550
     30 C22        -0.6021   -6.4928   -3.6328 C.ar      1 <0>        -0.0753
     31 F1         -3.1541   -8.6774   -2.2598 F         1 <0>        -0.1375
     32 O5          4.1077   -5.5894    1.6089 O.3       1 <0>        -0.4590
     33 H1          1.9918    1.6500    0.6329 H         1 <0>         0.0604
     34 H2          0.5046    1.8190   -0.3304 H         1 <0>         0.0885
     35 H3          0.4158    1.7972    1.4472 H         1 <0>         0.0870
     36 H4         -0.4085   -0.8864    2.0675 H         1 <0>         0.0691
     37 H5          1.0667   -1.8057    1.6843 H         1 <0>         0.0672
     38 H6          1.1793   -0.2833    2.5998 H         1 <0>         0.0815
     39 H7          2.9765    0.0398    0.8038 H         1 <0>         0.1504
     40 H8          3.9830    0.2581    3.0400 H         1 <0>         0.1531
     41 H9          4.7982   -1.7420    4.2184 H         1 <0>         0.1746
     42 H10         2.6641   -2.2974   -3.5769 H         1 <0>         0.1189
     43 H11         2.4111   -3.8398   -4.5559 H         1 <0>         0.1200
     44 H12         0.1273   -4.1407   -3.4917 H         1 <0>         0.1213
     45 H13         0.3804   -2.5982   -2.5126 H         1 <0>         0.0992
     46 H14         1.8462   -5.9271   -4.3411 H         1 <0>         0.0984
     47 H15         2.6297   -7.2585   -3.4571 H         1 <0>         0.1042
     48 H16         1.3284   -8.5958   -1.8351 H         1 <0>         0.1402
     49 H17        -0.8786   -9.5670   -1.3379 H         1 <0>         0.1379
     50 H18        -2.7313   -6.6024   -3.7878 H         1 <0>         0.1385
     51 H19        -0.5234   -5.6278   -4.2747 H         1 <0>         0.1331
     52 H20         3.4459   -6.0089    2.1756 H         1 <0>         0.4095
@<TRIPOS>BOND
     1    1    2 1
     2    1   33 1
     3    1   34 1
     4    1   35 1
     5    2    3 1
     6    2    4 1
     7    3   36 1
     8    3   37 1
     9    3   38 1
    10    4    5 2
    11    4    6 2
    12    4    7 1
    13    7    8 1
    14    8   17 ar
    15    8    9 ar
    16    9   14 ar
    17    9   10 ar
    18   10   11 ar
    19   10   39 1
    20   11   12 ar
    21   11   40 1
    22   12   13 ar
    23   12   41 1
    24   13   14 ar
    25   14   15 ar
    26   15   16 ar
    27   15   32 1
    28   16   22 1
    29   16   17 ar
    30   17   18 1
    31   18   20 1
    32   18   19 1
    33   18   21 1
    34   19   20 1
    35   19   42 1
    36   19   43 1
    37   20   44 1
    38   20   45 1
    39   21   22 am
    40   21   24 1
    41   22   23 2
    42   24   25 1
    43   24   46 1
    44   24   47 1
    45   25   30 ar
    46   25   26 ar
    47   26   27 ar
    48   26   48 1
    49   27   28 ar
    50   27   49 1
    51   28   29 ar
    52   28   31 1
    53   29   30 ar
    54   29   50 1
    55   30   51 1
    56   32   52 1
@<TRIPOS>MOLECULE
CHEMBL379974__1
   51    55     0     0     0
SMALL
USER_CHARGES

@<TRIPOS>ATOM
      1 C1          0.5323    1.4069   -0.9510 C.3       1 <0>         0.0888
      2 N1          0.5362   -0.0488   -0.7856 N.pl3     1 <0>        -1.0161
      3 C2          1.8050   -0.7656   -0.6355 C.3       1 <0>         0.0915
      4 S1         -0.8937   -0.8839   -0.7684 S.o2      1 <0>         2.7382
      5 O1         -0.6494   -2.0930   -0.0629 O.2       1 <0>        -0.9659
      6 O2         -1.8986    0.0394   -0.3725 O.2       1 <0>        -0.9729
      7 O3         -1.2040   -1.2745   -2.2064 O.3       1 <0>        -0.6528
      8 C3         -0.4782   -2.3296   -2.6615 C.ar      1 <0>        -0.0801
      9 C4          0.7982   -2.1175   -3.2253 C.ar      1 <0>        -0.0262
     10 C5          1.3411   -0.8244   -3.3284 C.ar      1 <0>        -0.1106
     11 C6          2.5815   -0.6873   -3.8850 C.ar      1 <0>        -0.1470
     12 C7          3.2706   -1.8131   -4.3311 C.ar      1 <0>         0.0618
     13 N2          2.7603   -3.0163   -4.2331 N.ar      1 <0>        -0.4088
     14 C8          1.5521   -3.2182   -3.6982 C.ar      1 <0>         0.0717
     15 C9          1.0139   -4.5184   -3.5976 C.ar      1 <0>         0.3708
     16 C10        -0.2469   -4.6995   -3.0368 C.ar      1 <0>        -0.3375
     17 C11        -0.9789   -3.5889   -2.5686 C.ar      1 <0>         0.0843
     18 C12        -2.2735   -4.1406   -2.0288 C.3       1 <0>         0.1354
     19 C13        -3.5839   -3.3718   -2.1836 C.3       1 <0>        -0.1711
     20 C14        -2.9428   -3.5247   -0.8021 C.3       1 <0>        -0.1693
     21 N3         -2.2190   -5.5917   -2.2149 N.am      1 <0>        -0.5919
     22 C15        -1.0526   -5.9104   -2.8028 C.2       1 <0>         0.5909
     23 O4         -0.7066   -7.0401   -3.0902 O.2       1 <0>        -0.5244
     24 C16        -3.2681   -6.5401   -1.8328 C.3       1 <0>         0.1762
     25 C17        -2.9538   -7.1173   -0.4766 C.ar      1 <0>        -0.1161
     26 C18        -2.1065   -8.2042   -0.3680 C.ar      1 <0>        -0.0615
     27 C19        -1.8172   -8.7340    0.8751 C.ar      1 <0>        -0.1546
     28 C20        -2.3763   -8.1758    2.0122 C.ar      1 <0>         0.0971
     29 C21        -3.2248   -7.0872    1.9022 C.ar      1 <0>        -0.1576
     30 C22        -3.5085   -6.5558    0.6584 C.ar      1 <0>        -0.0782
     31 F1         -2.0946   -8.6932    3.2280 F         1 <0>        -0.1435
     32 O5          1.7207   -5.5855   -4.0452 O.3       1 <0>        -0.5895
     33 H1          1.5575    1.7768   -0.9373 H         1 <0>         0.0809
     34 H2          0.0662    1.6632   -1.9023 H         1 <0>         0.0577
     35 H3         -0.0296    1.8636   -0.1363 H         1 <0>         0.0654
     36 H4          2.0644   -0.8277    0.4214 H         1 <0>         0.0552
     37 H5          1.7050   -1.7709   -1.0447 H         1 <0>         0.0758
     38 H6          2.5896   -0.2315   -1.1714 H         1 <0>         0.0738
     39 H7          0.7924    0.0371   -2.9775 H         1 <0>         0.1323
     40 H8          3.0269    0.2921   -3.9792 H         1 <0>         0.1294
     41 H9          4.2502   -1.6911   -4.7691 H         1 <0>         0.1510
     42 H10        -3.5386   -2.3893   -2.6536 H         1 <0>         0.1124
     43 H11        -4.4855   -3.9495   -2.3869 H         1 <0>         0.1069
     44 H12        -3.4228   -4.2030   -0.0967 H         1 <0>         0.1087
     45 H13        -2.4759   -2.6429   -0.3634 H         1 <0>         0.0972
     46 H14        -4.2277   -6.0246   -1.7947 H         1 <0>         0.0870
     47 H15        -3.3164   -7.3439   -2.5674 H         1 <0>         0.0940
     48 H16        -1.6707   -8.6397   -1.2551 H         1 <0>         0.1415
     49 H17        -1.1555   -9.5834    0.9597 H         1 <0>         0.1345
     50 H18        -3.6618   -6.6511    2.7884 H         1 <0>         0.1337
     51 H19        -4.1668   -5.7039    0.5727 H         1 <0>         0.1314
@<TRIPOS>BOND
     1    1    2 1
     2    1   33 1
     3    1   34 1
     4    1   35 1
     5    2    3 1
     6    2    4 1
     7    3   36 1
     8    3   37 1
     9    3   38 1
    10    4    5 2
    11    4    6 2
    12    4    7 1
    13    7    8 1
    14    8   17 ar
    15    8    9 ar
    16    9   14 ar
    17    9   10 ar
    18   10   11 ar
    19   10   39 1
    20   11   12 ar
    21   11   40 1
    22   12   13 ar
    23   12   41 1
    24   13   14 ar
    25   14   15 ar
    26   15   16 ar
    27   15   32 1
    28   16   22 1
    29   16   17 ar
    30   17   18 1
    31   18   20 1
    32   18   19 1
    33   18   21 1
    34   19   20 1
    35   19   42 1
    36   19   43 1
    37   20   44 1
    38   20   45 1
    39   21   22 am
    40   21   24 1
    41   22   23 2
    42   24   25 1
    43   24   46 1
    44   24   47 1
    45   25   30 ar
    46   25   26 ar
    47   26   27 ar
    48   26   48 1
    49   27   28 ar
    50   27   49 1
    51   28   29 ar
    52   28   31 1
    53   29   30 ar
    54   29   50 1
    55   30   51 1
@<TRIPOS>MOLECULE
CHEMBL377621
   49    52     0     0     0
SMALL
USER_CHARGES

@<TRIPOS>ATOM
      1 C1         -0.0178    1.4608    0.0101 C.3       1 <0>         0.0753
      2 N1          0.0021   -0.0041    0.0020 N.pl3     1 <0>        -1.0133
      3 C2          0.0241   -0.7433    1.2666 C.3       1 <0>         0.0868
      4 S1         -0.0004   -0.8243   -1.4366 S.o2      1 <0>         2.7477
      5 O1         -0.5312   -2.1147   -1.1675 O.2       1 <0>        -0.9565
      6 O2         -0.5723    0.0488   -2.4009 O.2       1 <0>        -0.9376
      7 O3          1.4527   -1.0274   -1.8413 O.3       1 <0>        -0.6672
      8 C3          2.0951   -1.9886   -1.1293 C.ar      1 <0>         0.0931
      9 C4          2.7699   -1.6551    0.0630 C.ar      1 <0>        -0.0723
     10 C5          2.7908   -0.3295    0.5351 C.ar      1 <0>        -0.0686
     11 C6          3.4609   -0.0679    1.6967 C.ar      1 <0>        -0.1406
     12 C7          4.0989   -1.1022    2.3782 C.ar      1 <0>         0.1388
     13 N2          4.0772   -2.3353    1.9346 N.ar      1 <0>        -0.4398
     14 C8          3.4394   -2.6585    0.8053 C.ar      1 <0>         0.1090
     15 C9          3.4273   -3.9935    0.3444 C.ar      1 <0>         0.2584
     16 C10         2.7604   -4.3100   -0.8304 C.ar      1 <0>        -0.1777
     17 C11         2.0859   -3.2994   -1.5666 C.ar      1 <0>         0.0036
     18 C12         1.4882   -3.9760   -2.7348 C.2       1 <0>         0.1355
     19 C13         0.7661   -3.3945   -3.6979 C.2       1 <0>        -0.1669
     20 N3          1.8123   -5.3298   -2.6546 N.am      1 <0>        -0.5484
     21 C14         2.5625   -5.5674   -1.5647 C.2       1 <0>         0.5779
     22 O4          2.9952   -6.6544   -1.2303 O.2       1 <0>        -0.4793
     23 C15         1.4058   -6.3464   -3.6280 C.3       1 <0>         0.1629
     24 C16         2.4520   -6.4553   -4.7072 C.ar      1 <0>        -0.1334
     25 C17         2.3646   -5.6628   -5.8365 C.ar      1 <0>        -0.0716
     26 C18         3.3237   -5.7615   -6.8266 C.ar      1 <0>        -0.1559
     27 C19         4.3725   -6.6546   -6.6871 C.ar      1 <0>         0.1096
     28 C20         4.4591   -7.4478   -5.5555 C.ar      1 <0>        -0.1549
     29 C21         3.5017   -7.3436   -4.5644 C.ar      1 <0>        -0.0632
     30 F1          5.3105   -6.7522   -7.6545 F         1 <0>        -0.1367
     31 O5          4.0653   -4.9618    1.0469 O.3       1 <0>        -0.4595
     32 H1          1.0048    1.8381    0.0023 H         1 <0>         0.0593
     33 H2         -0.5450    1.8219   -0.8730 H         1 <0>         0.0882
     34 H3         -0.5280    1.8123    0.9069 H         1 <0>         0.0864
     35 H4         -0.9979   -0.9406    1.5900 H         1 <0>         0.0691
     36 H5          0.5496   -1.6879    1.1262 H         1 <0>         0.0657
     37 H6          0.5371   -0.1514    2.0246 H         1 <0>         0.0799
     38 H7          2.2909    0.4599   -0.0065 H         1 <0>         0.1489
     39 H8          3.4962    0.9390    2.0859 H         1 <0>         0.1536
     40 H9          4.6251   -0.8822    3.2953 H         1 <0>         0.1751
     41 H10         0.5745   -2.3322   -3.6624 H         1 <0>         0.1125
     42 H11         0.3743   -3.9870   -4.5115 H         1 <0>         0.1316
     43 H12         1.2999   -7.3082   -3.1262 H         1 <0>         0.1091
     44 H13         0.4525   -6.0621   -4.0736 H         1 <0>         0.1040
     45 H14         1.5462   -4.9665   -5.9453 H         1 <0>         0.1339
     46 H15         3.2550   -5.1425   -7.7089 H         1 <0>         0.1391
     47 H16         5.2766   -8.1450   -5.4458 H         1 <0>         0.1390
     48 H17         3.5714   -7.9590   -3.6796 H         1 <0>         0.1391
     49 H18         3.5121   -5.3950    1.7112 H         1 <0>         0.4104
@<TRIPOS>BOND
     1    1    2 1
     2    1   32 1
     3    1   33 1
     4    1   34 1
     5    2    3 1
     6    2    4 1
     7    3   35 1
     8    3   36 1
     9    3   37 1
    10    4    5 2
    11    4    6 2
    12    4    7 1
    13    7    8 1
    14    8   17 ar
    15    8    9 ar
    16    9   14 ar
    17    9   10 ar
    18   10   11 ar
    19   10   38 1
    20   11   12 ar
    21   11   39 1
    22   12   13 ar
    23   12   40 1
    24   13   14 ar
    25   14   15 ar
    26   15   16 ar
    27   15   31 1
    28   16   21 1
    29   16   17 ar
    30   17   18 1
    31   18   19 2
    32   18   20 1
    33   19   41 1
    34   19   42 1
    35   20   21 am
    36   20   23 1
    37   21   22 2
    38   23   24 1
    39   23   43 1
    40   23   44 1
    41   24   29 ar
    42   24   25 ar
    43   25   26 ar
    44   25   45 1
    45   26   27 ar
    46   26   46 1
    47   27   28 ar
    48   27   30 1
    49   28   29 ar
    50   28   47 1
    51   29   48 1
    52   31   49 1
@<TRIPOS>MOLECULE
CHEMBL377621__1
   48    51     0     0     0
SMALL
USER_CHARGES

@<TRIPOS>ATOM
      1 C1         -0.0178    1.4608    0.0101 C.3       1 <0>         0.0823
      2 N1          0.0021   -0.0041    0.0020 N.pl3     1 <0>        -1.0147
      3 C2          0.0241   -0.7433    1.2666 C.3       1 <0>         0.0934
      4 S1         -0.0004   -0.8243   -1.4366 S.o2      1 <0>         2.7392
      5 O1         -0.5312   -2.1147   -1.1675 O.2       1 <0>        -0.9672
      6 O2         -0.5723    0.0488   -2.4009 O.2       1 <0>        -0.9730
      7 O3          1.4527   -1.0274   -1.8413 O.3       1 <0>        -0.6519
      8 C3          2.0951   -1.9886   -1.1293 C.ar      1 <0>        -0.0668
      9 C4          2.7699   -1.6551    0.0630 C.ar      1 <0>        -0.0250
     10 C5          2.7908   -0.3295    0.5351 C.ar      1 <0>        -0.1069
     11 C6          3.4609   -0.0679    1.6967 C.ar      1 <0>        -0.1454
     12 C7          4.0989   -1.1022    2.3782 C.ar      1 <0>         0.0643
     13 N2          4.0772   -2.3353    1.9346 N.ar      1 <0>        -0.4094
     14 C8          3.4394   -2.6585    0.8053 C.ar      1 <0>         0.0742
     15 C9          3.4273   -3.9935    0.3444 C.ar      1 <0>         0.3737
     16 C10         2.7604   -4.3100   -0.8304 C.ar      1 <0>        -0.3426
     17 C11         2.0859   -3.2994   -1.5666 C.ar      1 <0>         0.0695
     18 C12         1.4882   -3.9760   -2.7348 C.2       1 <0>         0.1654
     19 C13         0.7661   -3.3945   -3.6979 C.2       1 <0>        -0.2158
     20 N3          1.8123   -5.3298   -2.6546 N.am      1 <0>        -0.5669
     21 C14         2.5625   -5.5674   -1.5647 C.2       1 <0>         0.5877
     22 O4          2.9952   -6.6544   -1.2303 O.2       1 <0>        -0.5089
     23 C15         1.4058   -6.3464   -3.6280 C.3       1 <0>         0.1636
     24 C16         2.4520   -6.4553   -4.7072 C.ar      1 <0>        -0.1191
     25 C17         2.3646   -5.6628   -5.8365 C.ar      1 <0>        -0.0733
     26 C18         3.3237   -5.7615   -6.8266 C.ar      1 <0>        -0.1577
     27 C19         4.3725   -6.6546   -6.6871 C.ar      1 <0>         0.0985
     28 C20         4.4591   -7.4478   -5.5555 C.ar      1 <0>        -0.1556
     29 C21         3.5017   -7.3436   -4.5644 C.ar      1 <0>        -0.0632
     30 F1          5.3105   -6.7522   -7.6545 F         1 <0>        -0.1428
     31 O5          4.0653   -4.9618    1.0469 O.3       1 <0>        -0.5902
     32 H1          1.0048    1.8381    0.0023 H         1 <0>         0.0541
     33 H2         -0.5450    1.8219   -0.8730 H         1 <0>         0.0804
     34 H3         -0.5280    1.8123    0.9069 H         1 <0>         0.0754
     35 H4         -0.9979   -0.9406    1.5900 H         1 <0>         0.0561
     36 H5          0.5496   -1.6879    1.1262 H         1 <0>         0.0745
     37 H6          0.5371   -0.1514    2.0246 H         1 <0>         0.0723
     38 H7          2.2909    0.4599   -0.0065 H         1 <0>         0.1315
     39 H8          3.4962    0.9390    2.0859 H         1 <0>         0.1303
     40 H9          4.6251   -0.8822    3.2953 H         1 <0>         0.1519
     41 H10         0.5745   -2.3322   -3.6624 H         1 <0>         0.1055
     42 H11         0.3743   -3.9870   -4.5115 H         1 <0>         0.1153
     43 H12         1.2999   -7.3082   -3.1262 H         1 <0>         0.1001
     44 H13         0.4525   -6.0621   -4.0736 H         1 <0>         0.0937
     45 H14         1.5462   -4.9665   -5.9453 H         1 <0>         0.1336
     46 H15         3.2550   -5.1425   -7.7089 H         1 <0>         0.1348
     47 H16         5.2766   -8.1450   -5.4458 H         1 <0>         0.1353
     48 H17         3.5714   -7.9590   -3.6796 H         1 <0>         0.1397
@<TRIPOS>BOND
     1    1    2 1
     2    1   32 1
     3    1   33 1
     4    1   34 1
     5    2    3 1
     6    2    4 1
     7    3   35 1
     8    3   36 1
     9    3   37 1
    10    4    5 2
    11    4    6 2
    12    4    7 1
    13    7    8 1
    14    8   17 ar
    15    8    9 ar
    16    9   14 ar
    17    9   10 ar
    18   10   11 ar
    19   10   38 1
    20   11   12 ar
    21   11   39 1
    22   12   13 ar
    23   12   40 1
    24   13   14 ar
    25   14   15 ar
    26   15   16 ar
    27   15   31 1
    28   16   21 1
    29   16   17 ar
    30   17   18 1
    31   18   19 2
    32   18   20 1
    33   19   41 1
    34   19   42 1
    35   20   21 am
    36   20   23 1
    37   21   22 2
    38   23   24 1
    39   23   43 1
    40   23   44 1
    41   24   29 ar
    42   24   25 ar
    43   25   26 ar
    44   25   45 1
    45   26   27 ar
    46   26   46 1
    47   27   28 ar
    48   27   30 1
    49   28   29 ar
    50   28   47 1
    51   29   48 1
@<TRIPOS>MOLECULE
CHEMBL129073
   36    37     0     0     0
SMALL
USER_CHARGES

@<TRIPOS>ATOM
      1 C1         -0.0166    1.3733    0.0096 C.ar      1 <0>        -0.0904
      2 C2          1.1863    2.0891    0.0020 C.ar      1 <0>        -0.0732
      3 C3          2.4055    1.4008   -0.0134 C.ar      1 <0>        -0.1046
      4 C4          2.4147    0.0203   -0.0209 C.ar      1 <0>         0.0790
      5 C5          1.2118   -0.6856   -0.0132 C.ar      1 <0>         0.0952
      6 C6          0.0021   -0.0041    0.0020 C.ar      1 <0>        -0.1324
      7 O1          1.2237   -2.0438   -0.0206 O.3       1 <0>        -0.4867
      8 O2          3.5970   -0.6515   -0.0362 O.3       1 <0>        -0.4859
      9 C7          1.1696    3.5584    0.0095 C.2       1 <0>        -0.0168
     10 C8         -0.0079    4.2205    0.0239 C.2       1 <0>        -0.2270
     11 C9         -0.0246    5.6839    0.0314 C.2       1 <0>         0.4094
     12 O3          1.0244    6.3056    0.0247 O.2       1 <0>        -0.4651
     13 C10        -1.3002    6.4011    0.0469 C.2       1 <0>        -0.2270
     14 C11        -1.3156    7.7519    0.0539 C.2       1 <0>        -0.0167
     15 C12        -2.5964    8.4720    0.0695 C.ar      1 <0>        -0.0732
     16 C13        -2.6148    9.8721    0.0709 C.ar      1 <0>        -0.1046
     17 C14        -3.8214   10.5429    0.0851 C.ar      1 <0>         0.0790
     18 C15        -5.0181    9.8265    0.0980 C.ar      1 <0>         0.0952
     19 C16        -5.0010    8.4381    0.0967 C.ar      1 <0>        -0.1324
     20 C17        -3.8018    7.7604    0.0772 C.ar      1 <0>        -0.0904
     21 O4         -6.2036   10.4890    0.1125 O.3       1 <0>        -0.4867
     22 O5         -3.8431   11.9026    0.0869 O.3       1 <0>        -0.4858
     23 H1         -0.9589    1.9007    0.0259 H         1 <0>         0.1375
     24 H2          3.3364    1.9485   -0.0197 H         1 <0>         0.1403
     25 H3         -0.9266   -0.5553    0.0079 H         1 <0>         0.1391
     26 H4          1.2356   -2.4418    0.8606 H         1 <0>         0.3913
     27 H5          3.9477   -0.8506    0.8427 H         1 <0>         0.3900
     28 H6          2.0986    4.1091    0.0036 H         1 <0>         0.1370
     29 H7         -0.9370    3.6698    0.0298 H         1 <0>         0.1353
     30 H8         -2.2293    5.8504    0.0529 H         1 <0>         0.1353
     31 H9         -0.3865    8.3025    0.0480 H         1 <0>         0.1370
     32 H10        -1.6876   10.4257    0.0612 H         1 <0>         0.1403
     33 H11        -5.9303    7.8880    0.1071 H         1 <0>         0.1391
     34 H12        -3.7916    6.6804    0.0717 H         1 <0>         0.1375
     35 H13        -6.5571   10.6819   -0.7667 H         1 <0>         0.3913
     36 H14        -3.8592   12.2969   -0.7959 H         1 <0>         0.3899
@<TRIPOS>BOND
     1    1    6 ar
     2    1    2 ar
     3    1   23 1
     4    2    3 ar
     5    2    9 1
     6    3    4 ar
     7    3   24 1
     8    4    5 ar
     9    4    8 1
    10    5    6 ar
    11    5    7 1
    12    6   25 1
    13    7   26 1
    14    8   27 1
    15    9   10 2
    16    9   28 1
    17   10   11 1
    18   10   29 1
    19   11   12 2
    20   11   13 1
    21   13   14 2
    22   13   30 1
    23   14   15 1
    24   14   31 1
    25   15   20 ar
    26   15   16 ar
    27   16   17 ar
    28   16   32 1
    29   17   18 ar
    30   17   22 1
    31   18   19 ar
    32   18   21 1
    33   19   20 ar
    34   19   33 1
    35   20   34 1
    36   21   35 1
    37   22   36 1
@<TRIPOS>MOLECULE
CHEMBL209872
   53    56     0     0     0
SMALL
USER_CHARGES

@<TRIPOS>ATOM
      1 C1         -0.0356    1.5062   -2.3907 C.3       1 <0>        -0.1750
      2 C2         -0.6149    1.0201   -1.0872 C.2       1 <0>         0.5129
      3 O1         -0.0391    1.2496   -0.0447 O.2       1 <0>        -0.5440
      4 N1         -1.7728    0.3305   -1.0798 N.am      1 <0>        -0.6120
      5 C3         -2.4782    0.0398   -2.3359 C.3       1 <0>         0.0910
      6 C4         -2.6970   -1.4749   -2.4360 C.3       1 <0>         0.1319
      7 N2         -3.2765   -1.9502   -1.1718 N.pl3     1 <0>        -0.6559
      8 C5         -2.5710   -1.6596    0.0843 C.3       1 <0>         0.1341
      9 C6         -2.3494   -0.1497    0.1838 C.3       1 <0>         0.0953
     10 C7         -4.4675   -2.6596   -1.1643 C.ar      1 <0>         0.4233
     11 C8         -4.4568   -4.1146   -1.2703 C.ar      1 <0>        -0.1305
     12 C9         -3.2657   -4.8444   -1.3822 C.ar      1 <0>        -0.0323
     13 C10        -3.3532   -6.2073   -1.4763 C.ar      1 <0>        -0.1637
     14 C11        -4.6000   -6.8262   -1.4591 C.ar      1 <0>         0.1436
     15 N3         -5.7119   -6.1360   -1.3544 N.ar      1 <0>        -0.4543
     16 C12        -5.6916   -4.8075   -1.2590 C.ar      1 <0>         0.1239
     17 C13        -6.8789   -4.0466   -1.1445 C.ar      1 <0>         0.1677
     18 C14        -6.7903   -2.6664   -1.0488 C.ar      1 <0>         0.0363
     19 N4         -5.6158   -2.0259   -1.0559 N.ar      1 <0>        -0.4593
     20 C15        -8.0320   -1.8783   -0.9296 C.2       1 <0>         0.5730
     21 O2         -9.1100   -2.4406   -0.9165 O.2       1 <0>        -0.5136
     22 N5         -7.9712   -0.5353   -0.8351 N.am      1 <0>        -0.7103
     23 C16        -9.2041    0.2472   -0.7168 C.3       1 <0>         0.1624
     24 C17        -8.8626    1.7123   -0.6275 C.ar      1 <0>        -0.1216
     25 C18        -8.6408    2.2959    0.6059 C.ar      1 <0>        -0.0688
     26 C19        -8.3271    3.6393    0.6890 C.ar      1 <0>        -0.1551
     27 C20        -8.2350    4.4007   -0.4638 C.ar      1 <0>         0.1085
     28 C21        -8.4572    3.8150   -1.6986 C.ar      1 <0>        -0.1552
     29 C22        -8.7656    2.4703   -1.7795 C.ar      1 <0>        -0.0689
     30 F1         -7.9288    5.7141   -0.3838 F         1 <0>        -0.1369
     31 O3         -8.0885   -4.6597   -1.1290 O.3       1 <0>        -0.4512
     32 H1          0.8955    2.0392   -2.1983 H         1 <0>         0.0931
     33 H2          0.1614    0.6539   -3.0410 H         1 <0>         0.0886
     34 H3         -0.7447    2.1770   -2.8758 H         1 <0>         0.0885
     35 H4         -3.4416    0.5497   -2.3408 H         1 <0>         0.0773
     36 H5         -1.8776    0.3792   -3.1798 H         1 <0>         0.0956
     37 H6         -3.3808   -1.6924   -3.2565 H         1 <0>         0.0844
     38 H7         -1.7426   -1.9716   -2.6105 H         1 <0>         0.0673
     39 H8         -3.1717   -1.9990    0.9282 H         1 <0>         0.0832
     40 H9         -1.6077   -2.1694    0.0892 H         1 <0>         0.0663
     41 H10        -1.6637    0.0646    1.0036 H         1 <0>         0.1005
     42 H11        -3.3034    0.3464    0.3624 H         1 <0>         0.0729
     43 H12        -2.3074   -4.3465   -1.3941 H         1 <0>         0.1479
     44 H13        -2.4559   -6.8018   -1.5641 H         1 <0>         0.1472
     45 H14        -4.6541   -7.9022   -1.5342 H         1 <0>         0.1694
     46 H15        -7.1112   -0.0867   -0.8455 H         1 <0>         0.4113
     47 H16        -9.8305    0.0728   -1.5916 H         1 <0>         0.0816
     48 H17        -9.7419   -0.0559    0.1815 H         1 <0>         0.0813
     49 H18        -8.7131    1.7019    1.5050 H         1 <0>         0.1353
     50 H19        -8.1543    4.0951    1.6527 H         1 <0>         0.1385
     51 H20        -8.3859    4.4080   -2.5984 H         1 <0>         0.1384
     52 H21        -8.9347    2.0123   -2.7429 H         1 <0>         0.1354
     53 H22        -8.3955   -4.9017   -0.2445 H         1 <0>         0.4010
@<TRIPOS>BOND
     1    1    2 1
     2    1   32 1
     3    1   33 1
     4    1   34 1
     5    2    3 2
     6    2    4 am
     7    4    9 1
     8    4    5 1
     9    5    6 1
    10    5   35 1
    11    5   36 1
    12    6    7 1
    13    6   37 1
    14    6   38 1
    15    7    8 1
    16    7   10 1
    17    8    9 1
    18    8   39 1
    19    8   40 1
    20    9   41 1
    21    9   42 1
    22   10   19 ar
    23   10   11 ar
    24   11   16 ar
    25   11   12 ar
    26   12   13 ar
    27   12   43 1
    28   13   14 ar
    29   13   44 1
    30   14   15 ar
    31   14   45 1
    32   15   16 ar
    33   16   17 ar
    34   17   18 ar
    35   17   31 1
    36   18   19 ar
    37   18   20 1
    38   20   21 2
    39   20   22 am
    40   22   23 1
    41   22   46 1
    42   23   24 1
    43   23   47 1
    44   23   48 1
    45   24   29 ar
    46   24   25 ar
    47   25   26 ar
    48   25   49 1
    49   26   27 ar
    50   26   50 1
    51   27   28 ar
    52   27   30 1
    53   28   29 ar
    54   28   51 1
    55   29   52 1
    56   31   53 1
@<TRIPOS>MOLECULE
CHEMBL36303
   32    33     0     0     0
SMALL
USER_CHARGES

@<TRIPOS>ATOM
      1 C1         -0.0166    1.3737    0.0096 C.ar      1 <0>        -0.1349
      2 C2          1.1700    2.0889    0.0021 C.ar      1 <0>        -0.0696
      3 C3          2.3828    1.4295   -0.0135 C.ar      1 <0>        -0.1548
      4 C4          2.4204    0.0430   -0.0213 C.ar      1 <0>         0.1760
      5 C5          1.2224   -0.6841   -0.0133 C.ar      1 <0>        -0.1642
      6 C6          0.0021   -0.0041    0.0020 C.ar      1 <0>        -0.0698
      7 C7          1.2497   -2.1592   -0.0220 C.2       1 <0>         0.5627
      8 O1          2.3137   -2.7475   -0.0362 O.2       1 <0>        -0.5201
      9 N1          0.0952   -2.8546   -0.0143 N.am      1 <0>        -0.5196
     10 N2          0.1211   -4.2553   -0.0225 N.am      1 <0>        -0.5196
     11 C8         -1.0333   -4.9508   -0.0148 C.2       1 <0>         0.5627
     12 O2         -2.0973   -4.3625   -0.0007 O.2       1 <0>        -0.5201
     13 C9         -1.0060   -6.4258   -0.0235 C.ar      1 <0>        -0.1641
     14 C10         0.2143   -7.1059   -0.0339 C.ar      1 <0>        -0.0697
     15 C11         0.2330   -8.4836   -0.0415 C.ar      1 <0>        -0.1348
     16 C12        -0.9536   -9.1988   -0.0393 C.ar      1 <0>        -0.0696
     17 C13        -2.1665   -8.5394   -0.0295 C.ar      1 <0>        -0.1549
     18 C14        -2.2040   -7.1529   -0.0155 C.ar      1 <0>         0.1760
     19 O3         -3.3950   -6.5037   -0.0002 O.3       1 <0>        -0.4777
     20 O4          3.6113   -0.6062   -0.0371 O.3       1 <0>        -0.4777
     21 H1         -0.9604    1.8984    0.0260 H         1 <0>         0.1359
     22 H2          1.1460    3.1686    0.0082 H         1 <0>         0.1357
     23 H3          3.3035    1.9940   -0.0200 H         1 <0>         0.1399
     24 H4         -0.9253   -0.5575    0.0083 H         1 <0>         0.1311
     25 H5         -0.7536   -2.3853   -0.0030 H         1 <0>         0.4312
     26 H6          0.9700   -4.7247   -0.0338 H         1 <0>         0.4312
     27 H7          1.1418   -6.5525   -0.0363 H         1 <0>         0.1311
     28 H8          1.1769   -9.0084   -0.0495 H         1 <0>         0.1359
     29 H9         -0.9296  -10.2785   -0.0457 H         1 <0>         0.1357
     30 H10        -3.0872   -9.1039   -0.0286 H         1 <0>         0.1399
     31 H11        -3.7491   -6.3107   -0.8791 H         1 <0>         0.3981
     32 H12         3.9658   -0.7992    0.8417 H         1 <0>         0.3981
@<TRIPOS>BOND
     1    1    6 ar
     2    1    2 ar
     3    1   21 1
     4    2    3 ar
     5    2   22 1
     6    3    4 ar
     7    3   23 1
     8    4    5 ar
     9    4   20 1
    10    5    6 ar
    11    5    7 1
    12    6   24 1
    13    7    8 2
    14    7    9 am
    15    9   10 1
    16    9   25 1
    17   10   11 am
    18   10   26 1
    19   11   12 2
    20   11   13 1
    21   13   18 ar
    22   13   14 ar
    23   14   15 ar
    24   14   27 1
    25   15   16 ar
    26   15   28 1
    27   16   17 ar
    28   16   29 1
    29   17   18 ar
    30   17   30 1
    31   18   19 1
    32   19   31 1
    33   20   32 1
@<TRIPOS>MOLECULE
CHEMBL611459
   20    20     0     0     0
SMALL
USER_CHARGES

@<TRIPOS>ATOM
      1 C1         -0.0184    1.5086    0.0103 C.3       1 <0>        -0.0846
      2 C2          1.4358    1.9224   -0.0013 C.2       1 <0>        -0.1359
      3 C3          2.1639    0.8052   -0.0143 C.2       1 <0>        -0.1629
      4 C4          1.3084   -0.3715   -0.0124 C.2       1 <0>        -0.0502
      5 C5          0.0021   -0.0041    0.0020 C.2       1 <0>        -0.2225
      6 C6         -1.1143   -0.8618    0.0085 C.2       1 <0>         0.3941
      7 O1         -0.9551   -2.0660    0.0004 O.2       1 <0>        -0.4260
      8 C7         -2.5069   -0.2859    0.0254 C.3       1 <0>        -0.2106
      9 C8         -3.5140   -1.4070    0.0293 C.2       1 <0>         0.2892
     10 C9         -4.9752   -1.0981    0.0455 C.2       1 <0>         0.4686
     11 O2         -5.7908   -2.0059    0.0487 O.co2     1 <0>        -0.6533
     12 O3         -5.3535    0.0622    0.0555 O.co2     1 <0>        -0.6700
     13 O4         -3.1396   -2.5551    0.0195 O.2       1 <0>        -0.4222
     14 H1         -0.5091    1.8755    0.9119 H         1 <0>         0.1143
     15 H2         -0.5262    1.8851   -0.8777 H         1 <0>         0.1143
     16 H3          1.8142    2.9339    0.0005 H         1 <0>         0.1460
     17 H4          3.2435    0.7777   -0.0251 H         1 <0>         0.1302
     18 H5          1.6623   -1.3918   -0.0216 H         1 <0>         0.1361
     19 H6         -2.6374    0.3230    0.9200 H         1 <0>         0.1227
     20 H7         -2.6551    0.3325   -0.8599 H         1 <0>         0.1227
@<TRIPOS>BOND
     1    1    5 1
     2    1    2 1
     3    1   14 1
     4    1   15 1
     5    2    3 2
     6    2   16 1
     7    3    4 1
     8    3   17 1
     9    4    5 2
    10    4   18 1
    11    5    6 1
    12    6    7 2
    13    6    8 1
    14    8    9 1
    15    8   19 1
    16    8   20 1
    17    9   10 1
    18    9   13 2
    19   10   11 2
    20   10   12 1
@<TRIPOS>MOLECULE
CHEMBL68013
   60    62     0     0     0
SMALL
USER_CHARGES

@<TRIPOS>ATOM
      1 C1         -0.7716    1.0671    2.4948 C.ar      1 <0>        -0.0518
      2 C2          0.1203    1.8976    3.1376 C.ar      1 <0>        -0.1295
      3 C3          1.3518    2.1787    2.5616 C.ar      1 <0>         0.0879
      4 C4          1.6929    1.6224    1.3287 C.ar      1 <0>         0.0694
      5 C5          0.8055    0.7893    0.6776 C.ar      1 <0>        -0.1116
      6 C6         -0.4366    0.5048    1.2580 C.ar      1 <0>        -0.0559
      7 C7         -1.3856   -0.3817    0.5702 C.2       1 <0>        -0.0165
      8 C8         -2.6794   -0.0153    0.4399 C.2       1 <0>        -0.1767
      9 C9         -3.0580    1.3353    0.6465 C.2       1 <0>         0.4919
     10 O1         -2.2061    2.1856    0.8226 O.2       1 <0>        -0.5053
     11 O2         -4.3632    1.6775    0.6477 O.3       1 <0>        -0.3063
     12 C10        -4.6722    3.0562    0.8618 C.3       1 <0>         0.1072
     13 C11        -4.8425    3.3139    2.3603 C.3       1 <0>        -0.1033
     14 C12        -5.9809    2.4462    2.9008 C.3       1 <0>         0.0719
     15 C13        -7.2797    2.7969    2.1721 C.3       1 <0>        -0.1567
     16 C14        -7.1093    2.5392    0.6736 C.3       1 <0>         0.0975
     17 C15        -5.9710    3.4069    0.1331 C.3       1 <0>         0.1117
     18 O3         -5.8119    3.1661   -1.2665 O.3       1 <0>        -0.3408
     19 C16        -6.5278    3.9420   -2.1068 C.2       1 <0>         0.4850
     20 O4         -7.2671    4.7996   -1.6619 O.2       1 <0>        -0.4724
     21 C17        -6.4186    3.7577   -3.5083 C.2       1 <0>        -0.1852
     22 C18        -7.0332    4.6151   -4.3523 C.2       1 <0>        -0.0111
     23 C19        -7.5260    5.9078   -3.8564 C.ar      1 <0>        -0.0579
     24 C20        -6.7053    6.7119   -3.0569 C.ar      1 <0>        -0.0541
     25 C21        -7.1697    7.9230   -2.5935 C.ar      1 <0>        -0.1311
     26 C22        -8.4510    8.3494   -2.9173 C.ar      1 <0>         0.0905
     27 C23        -9.2747    7.5541   -3.7133 C.ar      1 <0>         0.0733
     28 C24        -8.8153    6.3412   -4.1870 C.ar      1 <0>        -0.1084
     29 O5        -10.5288    7.9758   -4.0278 O.3       1 <0>        -0.4865
     30 O6         -8.9034    9.5444   -2.4570 O.3       1 <0>        -0.4866
     31 O7         -8.3224    2.8667   -0.0070 O.3       1 <0>        -0.5597
     32 C25        -6.1487    2.7001    4.3768 C.2       1 <0>         0.4781
     33 O8         -6.4172    3.8204    4.7760 O.co2     1 <0>        -0.6896
     34 O9         -6.0160    1.7852    5.1717 O.co2     1 <0>        -0.6848
     35 O10        -5.6719    1.0676    2.6867 O.3       1 <0>        -0.5410
     36 O11         2.9000    1.9013    0.7679 O.3       1 <0>        -0.4882
     37 O12         2.2267    2.9980    3.2001 O.3       1 <0>        -0.4880
     38 H1         -1.7271    0.8467    2.9474 H         1 <0>         0.1286
     39 H2         -0.1394    2.3313    4.0920 H         1 <0>         0.1345
     40 H3          1.0686    0.3581   -0.2770 H         1 <0>         0.1316
     41 H4         -1.0488   -1.3261    0.1689 H         1 <0>         0.1461
     42 H5         -3.4254   -0.7512    0.1784 H         1 <0>         0.1475
     43 H6         -3.8612    3.6744    0.4767 H         1 <0>         0.0898
     44 H7         -3.9173    3.0641    2.8794 H         1 <0>         0.0796
     45 H8         -5.0782    4.3655    2.5236 H         1 <0>         0.0960
     46 H9         -8.0907    2.1787    2.5572 H         1 <0>         0.0669
     47 H10        -7.5154    3.8485    2.3354 H         1 <0>         0.0827
     48 H11        -6.8736    1.4876    0.5103 H         1 <0>         0.0760
     49 H12        -6.2067    4.4585    0.2964 H         1 <0>         0.1032
     50 H13        -5.8440    2.9320   -3.9012 H         1 <0>         0.1452
     51 H14        -7.1625    4.3505   -5.3913 H         1 <0>         0.1471
     52 H15        -5.7085    6.3827   -2.8032 H         1 <0>         0.1219
     53 H16        -6.5358    8.5424   -1.9764 H         1 <0>         0.1334
     54 H17        -9.4508    5.7264   -4.8073 H         1 <0>         0.1330
     55 H18       -10.5764    8.4954   -4.8420 H         1 <0>         0.3821
     56 H19        -8.7193   10.2883   -3.0468 H         1 <0>         0.3840
     57 H20        -9.0883    2.3539    0.2855 H         1 <0>         0.3743
     58 H21        -6.3515    0.4580    3.0056 H         1 <0>         0.3662
     59 H22         3.6018    1.2847    1.0178 H         1 <0>         0.3813
     60 H23         2.8322    2.5379    3.7974 H         1 <0>         0.3837
@<TRIPOS>BOND
     1    1    6 ar
     2    1    2 ar
     3    1   38 1
     4    2    3 ar
     5    2   39 1
     6    3    4 ar
     7    3   37 1
     8    4    5 ar
     9    4   36 1
    10    5    6 ar
    11    5   40 1
    12    6    7 1
    13    7    8 2
    14    7   41 1
    15    8    9 1
    16    8   42 1
    17    9   10 2
    18    9   11 1
    19   11   12 1
    20   12   17 1
    21   12   13 1
    22   12   43 1
    23   13   14 1
    24   13   44 1
    25   13   45 1
    26   14   15 1
    27   14   32 1
    28   14   35 1
    29   15   16 1
    30   15   46 1
    31   15   47 1
    32   16   17 1
    33   16   31 1
    34   16   48 1
    35   17   18 1
    36   17   49 1
    37   18   19 1
    38   19   20 2
    39   19   21 1
    40   21   22 2
    41   21   50 1
    42   22   23 1
    43   22   51 1
    44   23   28 ar
    45   23   24 ar
    46   24   25 ar
    47   24   52 1
    48   25   26 ar
    49   25   53 1
    50   26   27 ar
    51   26   30 1
    52   27   28 ar
    53   27   29 1
    54   28   54 1
    55   29   55 1
    56   30   56 1
    57   31   57 1
    58   32   33 2
    59   32   34 1
    60   35   58 1
    61   36   59 1
    62   37   60 1
@<TRIPOS>MOLECULE
CHEMBL68013__1
   60    62     0     0     0
SMALL
USER_CHARGES

@<TRIPOS>ATOM
      1 C1          1.3792    1.6819    0.8657 C.ar      1 <0>        -0.0517
      2 C2          2.3044    2.4942    1.4842 C.ar      1 <0>        -0.1293
      3 C3          3.4825    2.8323    0.8322 C.ar      1 <0>         0.0888
      4 C4          3.7361    2.3520   -0.4526 C.ar      1 <0>         0.0694
      5 C5          2.8148    1.5376   -1.0799 C.ar      1 <0>        -0.1110
      6 C6          1.6264    1.1956   -0.4230 C.ar      1 <0>        -0.0584
      7 C7          0.6416    0.3287   -1.0850 C.2       1 <0>        -0.0126
      8 C8         -0.6644    0.6743   -1.0944 C.2       1 <0>        -0.1794
      9 C9         -1.0482    2.0032   -0.7833 C.2       1 <0>         0.4935
     10 O1         -0.1996    2.8604   -0.6258 O.2       1 <0>        -0.5008
     11 O2         -2.3549    2.3171   -0.6621 O.3       1 <0>        -0.3127
     12 C10        -2.6694    3.6751   -0.3473 C.3       1 <0>         0.1031
     13 C11        -2.7263    3.8464    1.1720 C.3       1 <0>        -0.0991
     14 C12        -3.8042    2.9264    1.7489 C.3       1 <0>         0.0738
     15 C13        -5.1617    3.2890    1.1435 C.3       1 <0>        -0.1536
     16 C14        -5.1047    3.1178   -0.3758 C.3       1 <0>         0.0976
     17 C15        -4.0269    4.0378   -0.9527 C.3       1 <0>         0.1142
     18 O3         -4.3413    5.3957   -0.6379 O.3       1 <0>        -0.3306
     19 C16        -5.1020    6.0699   -1.5253 C.2       1 <0>         0.4911
     20 O4         -5.4872    5.5185   -2.5389 O.2       1 <0>        -0.4777
     21 C17        -5.4521    7.4211   -1.2765 C.2       1 <0>        -0.1851
     22 C18        -6.3169    8.0568   -2.0970 C.2       1 <0>        -0.0120
     23 C19        -7.1458    7.2837   -3.0323 C.ar      1 <0>        -0.0620
     24 C20        -7.8362    6.1505   -2.5867 C.ar      1 <0>        -0.0397
     25 C21        -8.6123    5.4277   -3.4655 C.ar      1 <0>        -0.1285
     26 C22        -8.7122    5.8201   -4.7939 C.ar      1 <0>         0.0876
     27 C23        -8.0276    6.9478   -5.2456 C.ar      1 <0>         0.0678
     28 C24        -7.2518    7.6817   -4.3702 C.ar      1 <0>        -0.1110
     29 O5         -8.1284    7.3282   -6.5474 O.3       1 <0>        -0.4881
     30 O6         -9.4788    5.1030   -5.6559 O.3       1 <0>        -0.4887
     31 O7         -6.3726    3.4565   -0.9412 O.3       1 <0>        -0.5595
     32 C25        -3.8603    3.0951    3.2454 C.2       1 <0>         0.4785
     33 O8         -4.1155    4.1858    3.7267 O.co2     1 <0>        -0.6898
     34 O9         -3.6504    2.1409    3.9747 O.co2     1 <0>        -0.6874
     35 O10        -3.4897    1.5684    1.4341 O.3       1 <0>        -0.5438
     36 O11         4.8912    2.6866   -1.0877 O.3       1 <0>        -0.4879
     37 O12         4.3907    3.6334    1.4471 O.3       1 <0>        -0.4878
     38 H1          0.4656    1.4169    1.3770 H         1 <0>         0.1289
     39 H2          2.1124    2.8692    2.4786 H         1 <0>         0.1350
     40 H3          3.0100    1.1652   -2.0746 H         1 <0>         0.1319
     41 H4          0.9620   -0.5848   -1.5639 H         1 <0>         0.1472
     42 H5         -1.4160   -0.0617   -1.3389 H         1 <0>         0.1487
     43 H6         -1.9015    4.3305   -0.7583 H         1 <0>         0.0896
     44 H7         -1.7592    3.5880    1.6033 H         1 <0>         0.0699
     45 H8         -2.9662    4.8822    1.4121 H         1 <0>         0.1004
     46 H9         -5.9296    2.6336    1.5545 H         1 <0>         0.0596
     47 H10        -5.4015    4.3249    1.3836 H         1 <0>         0.0845
     48 H11        -4.8649    2.0819   -0.6159 H         1 <0>         0.0801
     49 H12        -3.9863    3.9157   -2.0351 H         1 <0>         0.0903
     50 H13        -5.0276    7.9421   -0.4311 H         1 <0>         0.1491
     51 H14        -6.3991    9.1332   -2.0655 H         1 <0>         0.1473
     52 H15        -7.7600    5.8428   -1.5543 H         1 <0>         0.1289
     53 H16        -9.1442    4.5534   -3.1207 H         1 <0>         0.1319
     54 H17        -6.7246    8.5578   -4.7179 H         1 <0>         0.1315
     55 H18        -8.8548    7.9421   -6.7226 H         1 <0>         0.3814
     56 H19       -10.3981    5.3990   -5.7042 H         1 <0>         0.3832
     57 H20        -7.1046    2.9123   -0.6200 H         1 <0>         0.3730
     58 H21        -4.1320    0.9280    1.7695 H         1 <0>         0.3649
     59 H22         5.6203    2.0720   -0.9275 H         1 <0>         0.3814
     60 H23         5.0483    3.1539    1.9693 H         1 <0>         0.3839
@<TRIPOS>BOND
     1    1    6 ar
     2    1    2 ar
     3    1   38 1
     4    2    3 ar
     5    2   39 1
     6    3    4 ar
     7    3   37 1
     8    4    5 ar
     9    4   36 1
    10    5    6 ar
    11    5   40 1
    12    6    7 1
    13    7    8 2
    14    7   41 1
    15    8    9 1
    16    8   42 1
    17    9   10 2
    18    9   11 1
    19   11   12 1
    20   12   17 1
    21   12   13 1
    22   12   43 1
    23   13   14 1
    24   13   44 1
    25   13   45 1
    26   14   15 1
    27   14   32 1
    28   14   35 1
    29   15   16 1
    30   15   46 1
    31   15   47 1
    32   16   17 1
    33   16   31 1
    34   16   48 1
    35   17   18 1
    36   17   49 1
    37   18   19 1
    38   19   20 2
    39   19   21 1
    40   21   22 2
    41   21   50 1
    42   22   23 1
    43   22   51 1
    44   23   28 ar
    45   23   24 ar
    46   24   25 ar
    47   24   52 1
    48   25   26 ar
    49   25   53 1
    50   26   27 ar
    51   26   30 1
    52   27   28 ar
    53   27   29 1
    54   28   54 1
    55   29   55 1
    56   30   56 1
    57   31   57 1
    58   32   33 2
    59   32   34 1
    60   35   58 1
    61   36   59 1
    62   37   60 1
@<TRIPOS>MOLECULE
CHEMBL68013__2
   60    62     0     0     0
SMALL
USER_CHARGES

@<TRIPOS>ATOM
      1 C1         -0.7716    1.0671    2.4948 C.ar      1 <0>        -0.0512
      2 C2          0.1203    1.8976    3.1376 C.ar      1 <0>        -0.1298
      3 C3          1.3518    2.1787    2.5616 C.ar      1 <0>         0.0859
      4 C4          1.6929    1.6224    1.3287 C.ar      1 <0>         0.0690
      5 C5          0.8055    0.7893    0.6776 C.ar      1 <0>        -0.1133
      6 C6         -0.4366    0.5048    1.2580 C.ar      1 <0>        -0.0514
      7 C7         -1.3856   -0.3817    0.5702 C.2       1 <0>        -0.0257
      8 C8         -2.6794   -0.0153    0.4399 C.2       1 <0>        -0.1683
      9 C9         -3.0580    1.3353    0.6465 C.2       1 <0>         0.4847
     10 O1         -2.2061    2.1856    0.8225 O.2       1 <0>        -0.5137
     11 O2         -4.3632    1.6775    0.6477 O.3       1 <0>        -0.2737
     12 C10        -4.6722    3.0562    0.8618 C.3       1 <0>         0.1091
     13 C11        -4.8425    3.3139    2.3603 C.3       1 <0>        -0.1023
     14 C12        -5.9809    2.4462    2.9008 C.3       1 <0>         0.0777
     15 C13        -7.2797    2.7969    2.1721 C.3       1 <0>        -0.1622
     16 C14        -7.1093    2.5392    0.6736 C.3       1 <0>         0.1031
     17 C15        -5.9710    3.4069    0.1331 C.3       1 <0>         0.1071
     18 O3         -5.8119    3.1661   -1.2665 O.3       1 <0>        -0.3277
     19 C16        -6.5278    3.9420   -2.1068 C.2       1 <0>         0.4833
     20 O4         -7.2671    4.7996   -1.6619 O.2       1 <0>        -0.4966
     21 C17        -6.4186    3.7577   -3.5083 C.2       1 <0>        -0.1892
     22 C18        -7.0332    4.6151   -4.3523 C.2       1 <0>        -0.0058
     23 C19        -7.5260    5.9078   -3.8564 C.ar      1 <0>        -0.0617
     24 C20        -6.7053    6.7119   -3.0569 C.ar      1 <0>        -0.0535
     25 C21        -7.1697    7.9230   -2.5935 C.ar      1 <0>        -0.1314
     26 C22        -8.4510    8.3494   -2.9173 C.ar      1 <0>         0.0917
     27 C23        -9.2747    7.5541   -3.7133 C.ar      1 <0>         0.0729
     28 C24        -8.8153    6.3412   -4.1870 C.ar      1 <0>        -0.1088
     29 O5        -10.5288    7.9758   -4.0278 O.3       1 <0>        -0.4865
     30 O6         -8.9034    9.5444   -2.4570 O.3       1 <0>        -0.4866
     31 O7         -6.8003    1.1605    0.4595 O.3       1 <0>        -0.5209
     32 C25        -6.1487    2.7001    4.3768 C.2       1 <0>         0.4751
     33 O8         -6.4172    3.8204    4.7760 O.co2     1 <0>        -0.6936
     34 O9         -6.0160    1.7852    5.1717 O.co2     1 <0>        -0.6861
     35 O10        -5.6719    1.0676    2.6867 O.3       1 <0>        -0.5248
     36 O11         2.9000    1.9013    0.7679 O.3       1 <0>        -0.4885
     37 O12         2.2267    2.9980    3.2001 O.3       1 <0>        -0.4883
     38 H1         -1.7271    0.8467    2.9474 H         1 <0>         0.1282
     39 H2         -0.1394    2.3313    4.0920 H         1 <0>         0.1337
     40 H3          1.0686    0.3581   -0.2770 H         1 <0>         0.1309
     41 H4         -1.0488   -1.3261    0.1689 H         1 <0>         0.1443
     42 H5         -3.4254   -0.7512    0.1784 H         1 <0>         0.1474
     43 H6         -3.8612    3.6744    0.4767 H         1 <0>         0.0806
     44 H7         -3.9173    3.0641    2.8794 H         1 <0>         0.0769
     45 H8         -5.0782    4.3655    2.5236 H         1 <0>         0.0909
     46 H9         -8.0907    2.1787    2.5572 H         1 <0>         0.0676
     47 H10        -7.5154    3.8485    2.3354 H         1 <0>         0.0811
     48 H11        -8.0346    2.7890    0.1545 H         1 <0>         0.0486
     49 H12        -6.2067    4.4585    0.2964 H         1 <0>         0.1086
     50 H13        -5.8440    2.9320   -3.9012 H         1 <0>         0.1485
     51 H14        -7.1625    4.3505   -5.3913 H         1 <0>         0.1487
     52 H15        -5.7085    6.3827   -2.8032 H         1 <0>         0.1227
     53 H16        -6.5358    8.5424   -1.9764 H         1 <0>         0.1343
     54 H17        -9.4508    5.7264   -4.8073 H         1 <0>         0.1337
     55 H18       -10.5764    8.4954   -4.8420 H         1 <0>         0.3830
     56 H19        -8.7193   10.2883   -3.0468 H         1 <0>         0.3850
     57 H20        -7.4799    0.5510    0.7784 H         1 <0>         0.3636
     58 H21        -6.3515    0.4580    3.0056 H         1 <0>         0.3597
     59 H22         3.6018    1.2847    1.0178 H         1 <0>         0.3808
     60 H23         2.8322    2.5379    3.7974 H         1 <0>         0.3830
@<TRIPOS>BOND
     1    1    6 ar
     2    1    2 ar
     3    1   38 1
     4    2    3 ar
     5    2   39 1
     6    3    4 ar
     7    3   37 1
     8    4    5 ar
     9    4   36 1
    10    5    6 ar
    11    5   40 1
    12    6    7 1
    13    7    8 2
    14    7   41 1
    15    8    9 1
    16    8   42 1
    17    9   10 2
    18    9   11 1
    19   11   12 1
    20   12   17 1
    21   12   13 1
    22   12   43 1
    23   13   14 1
    24   13   44 1
    25   13   45 1
    26   14   15 1
    27   14   32 1
    28   14   35 1
    29   15   16 1
    30   15   46 1
    31   15   47 1
    32   16   17 1
    33   16   31 1
    34   16   48 1
    35   17   18 1
    36   17   49 1
    37   18   19 1
    38   19   20 2
    39   19   21 1
    40   21   22 2
    41   21   50 1
    42   22   23 1
    43   22   51 1
    44   23   28 ar
    45   23   24 ar
    46   24   25 ar
    47   24   52 1
    48   25   26 ar
    49   25   53 1
    50   26   27 ar
    51   26   30 1
    52   27   28 ar
    53   27   29 1
    54   28   54 1
    55   29   55 1
    56   30   56 1
    57   31   57 1
    58   32   33 2
    59   32   34 1
    60   35   58 1
    61   36   59 1
    62   37   60 1
@<TRIPOS>MOLECULE
CHEMBL68013__3
   60    62     0     0     0
SMALL
USER_CHARGES

@<TRIPOS>ATOM
      1 C1          1.3757    1.6802    0.8719 C.ar      1 <0>        -0.0511
      2 C2          2.3007    2.4925    1.4906 C.ar      1 <0>        -0.1294
      3 C3          3.4792    2.8303    0.8390 C.ar      1 <0>         0.0867
      4 C4          3.7331    2.3498   -0.4457 C.ar      1 <0>         0.0690
      5 C5          2.8119    1.5354   -1.0731 C.ar      1 <0>        -0.1127
      6 C6          1.6232    1.1937   -0.4166 C.ar      1 <0>        -0.0538
      7 C7          0.6386    0.3267   -1.0788 C.2       1 <0>        -0.0218
      8 C8         -0.6673    0.6727   -1.0891 C.2       1 <0>        -0.1709
      9 C9         -1.0510    2.0018   -0.7785 C.2       1 <0>         0.4870
     10 O1         -0.2021    2.8587   -0.6203 O.2       1 <0>        -0.5093
     11 O2         -2.3576    2.3161   -0.6584 O.3       1 <0>        -0.2808
     12 C10        -2.6719    3.6742   -0.3440 C.3       1 <0>         0.1071
     13 C11        -2.7301    3.8457    1.1752 C.3       1 <0>        -0.0984
     14 C12        -3.8087    2.9262    1.7513 C.3       1 <0>         0.0798
     15 C13        -5.1656    3.2892    1.1448 C.3       1 <0>        -0.1600
     16 C14        -5.1074    3.1177   -0.3744 C.3       1 <0>         0.1050
     17 C15        -4.0288    4.0373   -0.9506 C.3       1 <0>         0.1068
     18 O3         -4.3431    5.3954   -0.6362 O.3       1 <0>        -0.3247
     19 C16        -5.1028    6.0697   -1.5243 C.2       1 <0>         0.4884
     20 O4         -5.4874    5.5183   -2.5381 O.2       1 <0>        -0.4928
     21 C17        -5.4527    7.4210   -1.2760 C.2       1 <0>        -0.1893
     22 C18        -6.3169    8.0568   -2.0970 C.2       1 <0>        -0.0043
     23 C19        -7.1458    7.2837   -3.0323 C.ar      1 <0>        -0.0608
     24 C20        -7.8362    6.1505   -2.5867 C.ar      1 <0>        -0.0533
     25 C21        -8.6123    5.4277   -3.4655 C.ar      1 <0>        -0.1310
     26 C22        -8.7122    5.8201   -4.7939 C.ar      1 <0>         0.0901
     27 C23        -8.0276    6.9478   -5.2456 C.ar      1 <0>         0.0726
     28 C24        -7.2518    7.6817   -4.3702 C.ar      1 <0>        -0.1087
     29 O5         -8.1284    7.3282   -6.5474 O.3       1 <0>        -0.4871
     30 O6         -9.4788    5.1030   -5.6559 O.3       1 <0>        -0.4876
     31 O7         -4.7932    1.7596   -0.6888 O.3       1 <0>        -0.5246
     32 C25        -3.8660    3.0951    3.2477 C.2       1 <0>         0.4755
     33 O8         -4.1213    4.1859    3.7288 O.co2     1 <0>        -0.6937
     34 O9         -3.6570    2.1409    3.9774 O.co2     1 <0>        -0.6886
     35 O10        -3.4944    1.5680    1.4370 O.3       1 <0>        -0.5275
     36 O11         4.8884    2.6842   -1.0804 O.3       1 <0>        -0.4882
     37 O12         4.3872    3.6314    1.4540 O.3       1 <0>        -0.4880
     38 H1          0.4618    1.4154    1.3830 H         1 <0>         0.1286
     39 H2          2.1085    2.8676    2.4849 H         1 <0>         0.1342
     40 H3          3.0074    1.1628   -2.0678 H         1 <0>         0.1312
     41 H4          0.9590   -0.5870   -1.5572 H         1 <0>         0.1455
     42 H5         -1.4189   -0.0631   -1.3339 H         1 <0>         0.1486
     43 H6         -1.9035    4.3294   -0.7544 H         1 <0>         0.0807
     44 H7         -1.7634    3.5871    1.6073 H         1 <0>         0.0675
     45 H8         -2.9698    4.8816    1.4150 H         1 <0>         0.0953
     46 H9         -5.9340    2.6341    1.5552 H         1 <0>         0.0607
     47 H10        -5.4053    4.3251    1.3846 H         1 <0>         0.0828
     48 H11        -6.0741    3.3763   -0.8066 H         1 <0>         0.0464
     49 H12        -3.9874    3.9151   -2.0329 H         1 <0>         0.0924
     50 H13        -5.0284    7.9421   -0.4305 H         1 <0>         0.1535
     51 H14        -6.3986    9.1333   -2.0659 H         1 <0>         0.1508
     52 H15        -7.7600    5.8428   -1.5543 H         1 <0>         0.1238
     53 H16        -9.1442    4.5534   -3.1207 H         1 <0>         0.1334
     54 H17        -6.7246    8.5578   -4.7179 H         1 <0>         0.1342
     55 H18        -8.8548    7.9421   -6.7226 H         1 <0>         0.3832
     56 H19       -10.3981    5.3990   -5.7042 H         1 <0>         0.3849
     57 H20        -5.4359    1.1195   -0.3538 H         1 <0>         0.3702
     58 H21        -4.1371    0.9279    1.7720 H         1 <0>         0.3583
     59 H22         5.6175    2.0695   -0.9199 H         1 <0>         0.3809
     60 H23         5.0446    3.1519    1.9765 H         1 <0>         0.3831
@<TRIPOS>BOND
     1    1    6 ar
     2    1    2 ar
     3    1   38 1
     4    2    3 ar
     5    2   39 1
     6    3    4 ar
     7    3   37 1
     8    4    5 ar
     9    4   36 1
    10    5    6 ar
    11    5   40 1
    12    6    7 1
    13    7    8 2
    14    7   41 1
    15    8    9 1
    16    8   42 1
    17    9   10 2
    18    9   11 1
    19   11   12 1
    20   12   17 1
    21   12   13 1
    22   12   43 1
    23   13   14 1
    24   13   44 1
    25   13   45 1
    26   14   15 1
    27   14   32 1
    28   14   35 1
    29   15   16 1
    30   15   46 1
    31   15   47 1
    32   16   17 1
    33   16   31 1
    34   16   48 1
    35   17   18 1
    36   17   49 1
    37   18   19 1
    38   19   20 2
    39   19   21 1
    40   21   22 2
    41   21   50 1
    42   22   23 1
    43   22   51 1
    44   23   28 ar
    45   23   24 ar
    46   24   25 ar
    47   24   52 1
    48   25   26 ar
    49   25   53 1
    50   26   27 ar
    51   26   30 1
    52   27   28 ar
    53   27   29 1
    54   28   54 1
    55   29   55 1
    56   30   56 1
    57   31   57 1
    58   32   33 2
    59   32   34 1
    60   35   58 1
    61   36   59 1
    62   37   60 1
@<TRIPOS>MOLECULE
CHEMBL68013__4
   60    62     0     0     0
SMALL
USER_CHARGES

@<TRIPOS>ATOM
      1 C1          0.2875    2.4506    0.3479 C.ar      1 <0>        -0.0537
      2 C2          1.3746    3.1961    0.7485 C.ar      1 <0>        -0.1260
      3 C3          2.3538    3.5511   -0.1694 C.ar      1 <0>         0.0930
      4 C4          2.2422    3.1556   -1.5024 C.ar      1 <0>         0.0710
      5 C5          1.1564    2.4084   -1.9126 C.ar      1 <0>        -0.1099
      6 C6          0.1685    2.0494   -0.9874 C.ar      1 <0>        -0.0637
      7 C7         -0.9897    1.2538   -1.4176 C.2       1 <0>        -0.0053
      8 C8         -2.2374    1.6298   -1.0612 C.2       1 <0>        -0.1903
      9 C9         -2.4718    2.9426   -0.5797 C.2       1 <0>         0.4804
     10 O1         -1.5770    3.7665   -0.5994 O.2       1 <0>        -0.4812
     11 O2         -3.6874    3.2780   -0.0995 O.3       1 <0>        -0.3481
     12 C10        -3.8526    4.6179    0.3691 C.3       1 <0>         0.1057
     13 C11        -3.5034    4.6844    1.8573 C.3       1 <0>        -0.0930
     14 C12        -3.6804    6.1189    2.3590 C.3       1 <0>         0.0773
     15 C13        -5.1329    6.5547    2.1560 C.3       1 <0>        -0.1627
     16 C14        -5.4821    6.4882    0.6679 C.3       1 <0>         0.1011
     17 C15        -5.3051    5.0536    0.1661 C.3       1 <0>         0.1133
     18 O3         -6.1704    4.1830    0.8978 O.3       1 <0>        -0.3209
     19 C16        -7.4082    3.9874    0.3977 C.2       1 <0>         0.4864
     20 O4         -7.7428    4.5419   -0.6321 O.2       1 <0>        -0.4972
     21 C17        -8.3190    3.1357    1.0724 C.2       1 <0>        -0.1860
     22 C18        -9.5096    2.8374    0.5080 C.2       1 <0>        -0.0091
     23 C19        -9.7338    3.1050   -0.9195 C.ar      1 <0>        -0.0587
     24 C20        -8.7771    2.7174   -1.8650 C.ar      1 <0>        -0.0529
     25 C21        -8.9897    2.9694   -3.2023 C.ar      1 <0>        -0.1321
     26 C22       -10.1515    3.6077   -3.6162 C.ar      1 <0>         0.0889
     27 C23       -11.1094    3.9970   -2.6804 C.ar      1 <0>         0.0727
     28 C24       -10.9072    3.7432   -1.3383 C.ar      1 <0>        -0.1093
     29 O5        -12.2456    4.6218   -3.0904 O.3       1 <0>        -0.4871
     30 O6        -10.3553    3.8539   -4.9362 O.3       1 <0>        -0.4876
     31 O7         -4.6168    7.3588   -0.0638 O.3       1 <0>        -0.5425
     32 C25        -3.3365    6.1844    3.8248 C.2       1 <0>         0.4787
     33 O8         -2.4340    6.9095    4.2074 O.co2     1 <0>        -0.6848
     34 O9         -3.9606    5.5123    4.6281 O.co2     1 <0>        -0.6913
     35 O10        -2.8152    6.9896    1.6274 O.3       1 <0>        -0.5383
     36 O11         3.2034    3.5064   -2.3983 O.3       1 <0>        -0.4868
     37 O12         3.4231    4.2861    0.2315 O.3       1 <0>        -0.4855
     38 H1         -0.4704    2.1721    1.0652 H         1 <0>         0.1241
     39 H2          1.4652    3.5054    1.7793 H         1 <0>         0.1366
     40 H3          1.0690    2.1016   -2.9444 H         1 <0>         0.1321
     41 H4         -0.8435    0.3684   -2.0185 H         1 <0>         0.1475
     42 H5         -3.0563    0.9305   -1.1432 H         1 <0>         0.1467
     43 H6         -3.1927    5.2820   -0.1890 H         1 <0>         0.1199
     44 H7         -4.1634    4.0202    2.4154 H         1 <0>         0.0891
     45 H8         -2.4687    4.3739    2.0019 H         1 <0>         0.0664
     46 H9         -5.7929    5.8905    2.7141 H         1 <0>         0.0885
     47 H10        -5.2590    7.5766    2.5135 H         1 <0>         0.0646
     48 H11        -6.5169    6.7986    0.5233 H         1 <0>         0.0581
     49 H12        -5.5539    5.0063   -0.8940 H         1 <0>         0.0922
     50 H13        -8.0609    2.7254    2.0375 H         1 <0>         0.1525
     51 H14       -10.2967    2.4023    1.1059 H         1 <0>         0.1497
     52 H15        -7.8725    2.2211   -1.5460 H         1 <0>         0.1242
     53 H16        -8.2508    2.6702   -3.9308 H         1 <0>         0.1328
     54 H17       -11.6503    4.0402   -0.6131 H         1 <0>         0.1340
     55 H18       -12.9745    4.0195   -3.2930 H         1 <0>         0.3829
     56 H19       -10.8145    3.1422   -5.4027 H         1 <0>         0.3844
     57 H20        -4.6762    8.2867    0.2020 H         1 <0>         0.3790
     58 H21        -2.8745    7.9174    1.8932 H         1 <0>         0.3648
     59 H22         3.9234    2.8654   -2.4740 H         1 <0>         0.3813
     60 H23         4.1744    3.7563    0.5314 H         1 <0>         0.3838
@<TRIPOS>BOND
     1    1    6 ar
     2    1    2 ar
     3    1   38 1
     4    2    3 ar
     5    2   39 1
     6    3    4 ar
     7    3   37 1
     8    4    5 ar
     9    4   36 1
    10    5    6 ar
    11    5   40 1
    12    6    7 1
    13    7    8 2
    14    7   41 1
    15    8    9 1
    16    8   42 1
    17    9   10 2
    18    9   11 1
    19   11   12 1
    20   12   17 1
    21   12   13 1
    22   12   43 1
    23   13   14 1
    24   13   44 1
    25   13   45 1
    26   14   15 1
    27   14   32 1
    28   14   35 1
    29   15   16 1
    30   15   46 1
    31   15   47 1
    32   16   17 1
    33   16   31 1
    34   16   48 1
    35   17   18 1
    36   17   49 1
    37   18   19 1
    38   19   20 2
    39   19   21 1
    40   21   22 2
    41   21   50 1
    42   22   23 1
    43   22   51 1
    44   23   28 ar
    45   23   24 ar
    46   24   25 ar
    47   24   52 1
    48   25   26 ar
    49   25   53 1
    50   26   27 ar
    51   26   30 1
    52   27   28 ar
    53   27   29 1
    54   28   54 1
    55   29   55 1
    56   30   56 1
    57   31   57 1
    58   32   33 2
    59   32   34 1
    60   35   58 1
    61   36   59 1
    62   37   60 1
@<TRIPOS>MOLECULE
CHEMBL68013__5
   60    62     0     0     0
SMALL
USER_CHARGES

@<TRIPOS>ATOM
      1 C1          0.4252   -0.2410    0.5395 C.ar      1 <0>        -0.0542
      2 C2          1.5391    0.4093    1.0238 C.ar      1 <0>        -0.1260
      3 C3          2.5903    0.7212    0.1723 C.ar      1 <0>         0.0926
      4 C4          2.5246    0.3785   -1.1783 C.ar      1 <0>         0.0712
      5 C5          1.4125   -0.2733   -1.6721 C.ar      1 <0>        -0.1098
      6 C6          0.3519   -0.5887   -0.8140 C.ar      1 <0>        -0.0626
      7 C7         -0.8347   -1.2829   -1.3333 C.2       1 <0>        -0.0065
      8 C8         -2.0701   -0.8281   -1.0298 C.2       1 <0>        -0.1895
      9 C9         -2.2363    0.4819   -0.5138 C.2       1 <0>         0.4833
     10 O1         -1.2853    1.2382   -0.4563 O.2       1 <0>        -0.4806
     11 O2         -3.4495    0.8898   -0.0865 O.3       1 <0>        -0.3498
     12 C10        -3.5442    2.2222    0.4212 C.3       1 <0>         0.1044
     13 C11        -3.2739    2.2145    1.9271 C.3       1 <0>        -0.0952
     14 C12        -3.3753    3.6411    2.4708 C.3       1 <0>         0.0755
     15 C13        -4.7795    4.1886    2.2075 C.3       1 <0>        -0.1646
     16 C14        -5.0498    4.1963    0.7015 C.3       1 <0>         0.1029
     17 C15        -4.9484    2.7697    0.1579 C.3       1 <0>         0.1122
     18 O3         -5.2009    2.7769   -1.2486 O.3       1 <0>        -0.3292
     19 C16        -6.4816    2.6168   -1.6419 C.2       1 <0>         0.4851
     20 O4         -7.3596    2.4749   -0.8119 O.2       1 <0>        -0.4958
     21 C17        -6.8041    2.6138   -3.0225 C.2       1 <0>        -0.1882
     22 C18        -8.0967    2.5832   -3.4142 C.2       1 <0>        -0.0067
     23 C19        -9.1638    2.8875   -2.4507 C.ar      1 <0>        -0.0609
     24 C20        -9.0624    4.0116   -1.6228 C.ar      1 <0>        -0.0531
     25 C21       -10.0641    4.2944   -0.7207 C.ar      1 <0>        -0.1314
     26 C22       -11.1756    3.4669   -0.6297 C.ar      1 <0>         0.0914
     27 C23       -11.2840    2.3451   -1.4509 C.ar      1 <0>         0.0730
     28 C24       -10.2874    2.0572   -2.3622 C.ar      1 <0>        -0.1088
     29 O5        -12.3744    1.5377   -1.3582 O.3       1 <0>        -0.4865
     30 O6        -12.1598    3.7508    0.2622 O.3       1 <0>        -0.4866
     31 O7         -4.0855    5.0245    0.0487 O.3       1 <0>        -0.5382
     32 C25        -3.1091    3.6335    3.9541 C.2       1 <0>         0.4782
     33 O8         -2.1797    4.2776    4.4099 O.co2     1 <0>        -0.6823
     34 O9         -3.8231    2.9832    4.6983 O.co2     1 <0>        -0.6910
     35 O10        -2.4110    4.4693    1.8180 O.3       1 <0>        -0.5349
     36 O11         3.5564    0.6868   -2.0088 O.3       1 <0>        -0.4868
     37 O12         3.6857    1.3624    0.6556 O.3       1 <0>        -0.4856
     38 H1         -0.3891   -0.4864    1.2051 H         1 <0>         0.1237
     39 H2          1.5945    0.6775    2.0685 H         1 <0>         0.1363
     40 H3          1.3605   -0.5392   -2.7176 H         1 <0>         0.1322
     41 H4         -0.7192   -2.1566   -1.9576 H         1 <0>         0.1476
     42 H5         -2.9311   -1.4625   -1.1803 H         1 <0>         0.1465
     43 H6         -2.8086    2.8540   -0.0767 H         1 <0>         0.1147
     44 H7         -4.0095    1.5828    2.4251 H         1 <0>         0.0841
     45 H8         -2.2735    1.8245    2.1147 H         1 <0>         0.0755
     46 H9         -5.5151    3.5569    2.7054 H         1 <0>         0.0869
     47 H10        -4.8518    5.2049    2.5948 H         1 <0>         0.0712
     48 H11        -6.0502    4.5863    0.5140 H         1 <0>         0.0576
     49 H12        -5.6840    2.1380    0.6558 H         1 <0>         0.1020
     50 H13        -6.0164    2.6360   -3.7611 H         1 <0>         0.1481
     51 H14        -8.3458    2.3350   -4.4354 H         1 <0>         0.1487
     52 H15        -8.1990    4.6567   -1.6912 H         1 <0>         0.1224
     53 H16        -9.9846    5.1618   -0.0822 H         1 <0>         0.1336
     54 H17       -10.3723    1.1911   -3.0019 H         1 <0>         0.1338
     55 H18       -13.1023    1.7911   -1.9422 H         1 <0>         0.3828
     56 H19       -12.8575    4.3202   -0.0900 H         1 <0>         0.3848
     57 H20        -4.0929    5.9451    0.3447 H         1 <0>         0.3722
     58 H21        -2.4184    5.3899    2.1139 H         1 <0>         0.3654
     59 H22         4.2318   -0.0025   -2.0697 H         1 <0>         0.3812
     60 H23         4.3795    0.7694    0.9752 H         1 <0>         0.3836
@<TRIPOS>BOND
     1    1    6 ar
     2    1    2 ar
     3    1   38 1
     4    2    3 ar
     5    2   39 1
     6    3    4 ar
     7    3   37 1
     8    4    5 ar
     9    4   36 1
    10    5    6 ar
    11    5   40 1
    12    6    7 1
    13    7    8 2
    14    7   41 1
    15    8    9 1
    16    8   42 1
    17    9   10 2
    18    9   11 1
    19   11   12 1
    20   12   17 1
    21   12   13 1
    22   12   43 1
    23   13   14 1
    24   13   44 1
    25   13   45 1
    26   14   15 1
    27   14   32 1
    28   14   35 1
    29   15   16 1
    30   15   46 1
    31   15   47 1
    32   16   17 1
    33   16   31 1
    34   16   48 1
    35   17   18 1
    36   17   49 1
    37   18   19 1
    38   19   20 2
    39   19   21 1
    40   21   22 2
    41   21   50 1
    42   22   23 1
    43   22   51 1
    44   23   28 ar
    45   23   24 ar
    46   24   25 ar
    47   24   52 1
    48   25   26 ar
    49   25   53 1
    50   26   27 ar
    51   26   30 1
    52   27   28 ar
    53   27   29 1
    54   28   54 1
    55   29   55 1
    56   30   56 1
    57   31   57 1
    58   32   33 2
    59   32   34 1
    60   35   58 1
    61   36   59 1
    62   37   60 1
@<TRIPOS>MOLECULE
CHEMBL68013__6
   60    62     0     0     0
SMALL
USER_CHARGES

@<TRIPOS>ATOM
      1 C1          0.2875    2.4506    0.3479 C.ar      1 <0>        -0.0540
      2 C2          1.3746    3.1961    0.7485 C.ar      1 <0>        -0.1262
      3 C3          2.3538    3.5511   -0.1694 C.ar      1 <0>         0.0932
      4 C4          2.2422    3.1556   -1.5024 C.ar      1 <0>         0.0711
      5 C5          1.1564    2.4084   -1.9126 C.ar      1 <0>        -0.1096
      6 C6          0.1685    2.0494   -0.9874 C.ar      1 <0>        -0.0647
      7 C7         -0.9897    1.2538   -1.4176 C.2       1 <0>        -0.0031
      8 C8         -2.2374    1.6298   -1.0612 C.2       1 <0>        -0.1913
      9 C9         -2.4718    2.9426   -0.5797 C.2       1 <0>         0.4818
     10 O1         -1.5770    3.7665   -0.5994 O.2       1 <0>        -0.4829
     11 O2         -3.6874    3.2780   -0.0995 O.3       1 <0>        -0.3423
     12 C10        -3.8526    4.6179    0.3691 C.3       1 <0>         0.1025
     13 C11        -3.5034    4.6844    1.8573 C.3       1 <0>        -0.0944
     14 C12        -3.6804    6.1189    2.3590 C.3       1 <0>         0.0713
     15 C13        -5.1329    6.5547    2.1560 C.3       1 <0>        -0.1567
     16 C14        -5.4821    6.4882    0.6679 C.3       1 <0>         0.0951
     17 C15        -5.3051    5.0536    0.1661 C.3       1 <0>         0.1154
     18 O3         -6.1704    4.1830    0.8978 O.3       1 <0>        -0.3249
     19 C16        -7.4082    3.9874    0.3977 C.2       1 <0>         0.4891
     20 O4         -7.7428    4.5419   -0.6321 O.2       1 <0>        -0.4809
     21 C17        -8.3190    3.1357    1.0724 C.2       1 <0>        -0.1787
     22 C18        -9.5096    2.8374    0.5080 C.2       1 <0>        -0.0186
     23 C19        -9.7338    3.1050   -0.9195 C.ar      1 <0>        -0.0519
     24 C20        -8.7771    2.7174   -1.8650 C.ar      1 <0>        -0.0535
     25 C21        -8.9897    2.9694   -3.2023 C.ar      1 <0>        -0.1322
     26 C22       -10.1515    3.6077   -3.6162 C.ar      1 <0>         0.0865
     27 C23       -11.1094    3.9970   -2.6804 C.ar      1 <0>         0.0732
     28 C24       -10.9072    3.7432   -1.3383 C.ar      1 <0>        -0.1096
     29 O5        -12.2456    4.6218   -3.0904 O.3       1 <0>        -0.4873
     30 O6        -10.3553    3.8539   -4.9362 O.3       1 <0>        -0.4880
     31 O7         -6.8387    6.8952    0.4783 O.3       1 <0>        -0.5543
     32 C25        -3.3365    6.1844    3.8248 C.2       1 <0>         0.4817
     33 O8         -2.4340    6.9095    4.2074 O.co2     1 <0>        -0.6836
     34 O9         -3.9606    5.5123    4.6281 O.co2     1 <0>        -0.6873
     35 O10        -2.8152    6.9896    1.6274 O.3       1 <0>        -0.5551
     36 O11         3.2034    3.5064   -2.3983 O.3       1 <0>        -0.4869
     37 O12         3.4231    4.2861    0.2315 O.3       1 <0>        -0.4856
     38 H1         -0.4704    2.1721    1.0652 H         1 <0>         0.1244
     39 H2          1.4652    3.5054    1.7793 H         1 <0>         0.1368
     40 H3          1.0690    2.1016   -2.9444 H         1 <0>         0.1323
     41 H4         -0.8435    0.3684   -2.0185 H         1 <0>         0.1481
     42 H5         -3.0563    0.9305   -1.1432 H         1 <0>         0.1477
     43 H6         -3.1927    5.2820   -0.1890 H         1 <0>         0.1098
     44 H7         -4.1634    4.0202    2.4154 H         1 <0>         0.0943
     45 H8         -2.4687    4.3739    2.0019 H         1 <0>         0.0692
     46 H9         -5.7929    5.8905    2.7141 H         1 <0>         0.0898
     47 H10        -5.2590    7.5766    2.5135 H         1 <0>         0.0636
     48 H11        -4.8221    7.1523    0.1098 H         1 <0>         0.0738
     49 H12        -5.5539    5.0063   -0.8940 H         1 <0>         0.0902
     50 H13        -8.0609    2.7254    2.0375 H         1 <0>         0.1482
     51 H14       -10.2967    2.4023    1.1059 H         1 <0>         0.1473
     52 H15        -7.8725    2.2211   -1.5460 H         1 <0>         0.1230
     53 H16        -8.2508    2.6702   -3.9308 H         1 <0>         0.1313
     54 H17       -11.6503    4.0402   -0.6131 H         1 <0>         0.1331
     55 H18       -12.9745    4.0195   -3.2930 H         1 <0>         0.3821
     56 H19       -10.8145    3.1422   -5.4027 H         1 <0>         0.3833
     57 H20        -7.0239    7.7968    0.7748 H         1 <0>         0.3770
     58 H21        -2.8745    7.9174    1.8932 H         1 <0>         0.3718
     59 H22         3.9234    2.8654   -2.4740 H         1 <0>         0.3817
     60 H23         4.1744    3.7563    0.5314 H         1 <0>         0.3842
@<TRIPOS>BOND
     1    1    6 ar
     2    1    2 ar
     3    1   38 1
     4    2    3 ar
     5    2   39 1
     6    3    4 ar
     7    3   37 1
     8    4    5 ar
     9    4   36 1
    10    5    6 ar
    11    5   40 1
    12    6    7 1
    13    7    8 2
    14    7   41 1
    15    8    9 1
    16    8   42 1
    17    9   10 2
    18    9   11 1
    19   11   12 1
    20   12   17 1
    21   12   13 1
    22   12   43 1
    23   13   14 1
    24   13   44 1
    25   13   45 1
    26   14   15 1
    27   14   32 1
    28   14   35 1
    29   15   16 1
    30   15   46 1
    31   15   47 1
    32   16   17 1
    33   16   31 1
    34   16   48 1
    35   17   18 1
    36   17   49 1
    37   18   19 1
    38   19   20 2
    39   19   21 1
    40   21   22 2
    41   21   50 1
    42   22   23 1
    43   22   51 1
    44   23   28 ar
    45   23   24 ar
    46   24   25 ar
    47   24   52 1
    48   25   26 ar
    49   25   53 1
    50   26   27 ar
    51   26   30 1
    52   27   28 ar
    53   27   29 1
    54   28   54 1
    55   29   55 1
    56   30   56 1
    57   31   57 1
    58   32   33 2
    59   32   34 1
    60   35   58 1
    61   36   59 1
    62   37   60 1
@<TRIPOS>MOLECULE
CHEMBL68013__7
   60    62     0     0     0
SMALL
USER_CHARGES

@<TRIPOS>ATOM
      1 C1          0.4216   -0.2489    0.5411 C.ar      1 <0>        -0.0545
      2 C2          1.5360    0.4002    1.0261 C.ar      1 <0>        -0.1263
      3 C3          2.5880    0.7110    0.1753 C.ar      1 <0>         0.0928
      4 C4          2.5228    0.3684   -1.1753 C.ar      1 <0>         0.0712
      5 C5          1.4102   -0.2820   -1.6699 C.ar      1 <0>        -0.1095
      6 C6          0.3487   -0.5964   -0.8125 C.ar      1 <0>        -0.0635
      7 C7         -0.8384   -1.2892   -1.3326 C.2       1 <0>        -0.0044
      8 C8         -2.0735   -0.8333   -1.0294 C.2       1 <0>        -0.1903
      9 C9         -2.2386    0.4768   -0.5133 C.2       1 <0>         0.4847
     10 O1         -1.2869    1.2323   -0.4555 O.2       1 <0>        -0.4824
     11 O2         -3.4515    0.8857   -0.0861 O.3       1 <0>        -0.3439
     12 C10        -3.5451    2.2181    0.4219 C.3       1 <0>         0.1046
     13 C11        -3.2750    2.2100    1.9278 C.3       1 <0>        -0.0971
     14 C12        -3.3753    3.6365    2.4716 C.3       1 <0>         0.0695
     15 C13        -4.7790    4.1853    2.2082 C.3       1 <0>        -0.1586
     16 C14        -5.0490    4.1934    0.7022 C.3       1 <0>         0.1006
     17 C15        -4.9488    2.7669    0.1584 C.3       1 <0>         0.1118
     18 O3         -5.2010    2.7745   -1.2481 O.3       1 <0>        -0.3423
     19 C16        -6.4818    2.6155   -1.6417 C.2       1 <0>         0.4875
     20 O4         -7.3601    2.4743   -0.8118 O.2       1 <0>        -0.4725
     21 C17        -6.8041    2.6130   -3.0223 C.2       1 <0>        -0.1873
     22 C18        -8.0967    2.5832   -3.4142 C.2       1 <0>        -0.0101
     23 C19        -9.1638    2.8875   -2.4507 C.ar      1 <0>        -0.0647
     24 C20        -9.0624    4.0116   -1.6228 C.ar      1 <0>        -0.0403
     25 C21       -10.0641    4.2944   -0.7207 C.ar      1 <0>        -0.1282
     26 C22       -11.1756    3.4669   -0.6297 C.ar      1 <0>         0.0900
     27 C23       -11.2840    2.3451   -1.4509 C.ar      1 <0>         0.0686
     28 C24       -10.2874    2.0572   -2.3622 C.ar      1 <0>        -0.1103
     29 O5        -12.3744    1.5377   -1.3582 O.3       1 <0>        -0.4873
     30 O6        -12.1598    3.7508    0.2622 O.3       1 <0>        -0.4873
     31 O7         -6.3601    4.7060    0.4562 O.3       1 <0>        -0.5549
     32 C25        -3.1093    3.6285    3.9550 C.2       1 <0>         0.4812
     33 O8         -2.1794    4.2718    4.4110 O.co2     1 <0>        -0.6811
     34 O9         -3.8240    2.9788    4.6990 O.co2     1 <0>        -0.6870
     35 O10        -2.4101    4.4640    1.8191 O.3       1 <0>        -0.5517
     36 O11         3.5554    0.6757   -2.0052 O.3       1 <0>        -0.4869
     37 O12         3.6839    1.3509    0.6593 O.3       1 <0>        -0.4857
     38 H1         -0.3934   -0.4934    1.2062 H         1 <0>         0.1240
     39 H2          1.5910    0.6682    2.0709 H         1 <0>         0.1366
     40 H3          1.3585   -0.5478   -2.7154 H         1 <0>         0.1324
     41 H4         -0.7234   -2.1627   -1.9571 H         1 <0>         0.1482
     42 H5         -2.9350   -1.4668   -1.1803 H         1 <0>         0.1475
     43 H6         -2.8089    2.8493   -0.0759 H         1 <0>         0.1040
     44 H7         -4.0112    1.5788    2.4255 H         1 <0>         0.0891
     45 H8         -2.2750    1.8190    2.1155 H         1 <0>         0.0782
     46 H9         -5.5152    3.5541    2.7059 H         1 <0>         0.0879
     47 H10        -4.8504    5.2016    2.5956 H         1 <0>         0.0704
     48 H11        -4.3129    4.8246    0.2045 H         1 <0>         0.0697
     49 H12        -5.6850    2.1357    0.6561 H         1 <0>         0.0980
     50 H13        -6.0164    2.6350   -3.7608 H         1 <0>         0.1444
     51 H14        -8.3457    2.3357   -4.4355 H         1 <0>         0.1461
     52 H15        -8.1990    4.6567   -1.6912 H         1 <0>         0.1270
     53 H16        -9.9846    5.1618   -0.0822 H         1 <0>         0.1325
     54 H17       -10.3723    1.1911   -3.0019 H         1 <0>         0.1315
     55 H18       -13.1023    1.7911   -1.9422 H         1 <0>         0.3812
     56 H19       -12.8575    4.3202   -0.0900 H         1 <0>         0.3833
     57 H20        -6.4958    5.6087    0.7753 H         1 <0>         0.3757
     58 H21        -2.4168    5.3845    2.1152 H         1 <0>         0.3722
     59 H22         4.2301   -0.0144   -2.0658 H         1 <0>         0.3816
     60 H23         4.3768    0.7571    0.9792 H         1 <0>         0.3840
@<TRIPOS>BOND
     1    1    6 ar
     2    1    2 ar
     3    1   38 1
     4    2    3 ar
     5    2   39 1
     6    3    4 ar
     7    3   37 1
     8    4    5 ar
     9    4   36 1
    10    5    6 ar
    11    5   40 1
    12    6    7 1
    13    7    8 2
    14    7   41 1
    15    8    9 1
    16    8   42 1
    17    9   10 2
    18    9   11 1
    19   11   12 1
    20   12   17 1
    21   12   13 1
    22   12   43 1
    23   13   14 1
    24   13   44 1
    25   13   45 1
    26   14   15 1
    27   14   32 1
    28   14   35 1
    29   15   16 1
    30   15   46 1
    31   15   47 1
    32   16   17 1
    33   16   31 1
    34   16   48 1
    35   17   18 1
    36   17   49 1
    37   18   19 1
    38   19   20 2
    39   19   21 1
    40   21   22 2
    41   21   50 1
    42   22   23 1
    43   22   51 1
    44   23   28 ar
    45   23   24 ar
    46   24   25 ar
    47   24   52 1
    48   25   26 ar
    49   25   53 1
    50   26   27 ar
    51   26   30 1
    52   27   28 ar
    53   27   29 1
    54   28   54 1
    55   29   55 1
    56   30   56 1
    57   31   57 1
    58   32   33 2
    59   32   34 1
    60   35   58 1
    61   36   59 1
    62   37   60 1
@<TRIPOS>MOLECULE
CHEMBL68013__8
   60    62     0     0     0
SMALL
USER_CHARGES

@<TRIPOS>ATOM
      1 C1         -0.5757    1.1153    0.4997 C.ar      1 <0>        -0.0566
      2 C2          0.7282    1.4356    0.8088 C.ar      1 <0>        -0.1300
      3 C3          1.7083    1.3954   -0.1736 C.ar      1 <0>         0.0906
      4 C4          1.3786    1.0309   -1.4791 C.ar      1 <0>         0.0747
      5 C5          0.0748    0.7084   -1.7977 C.ar      1 <0>        -0.1078
      6 C6         -0.9144    0.7482   -0.8075 C.ar      1 <0>        -0.0606
      7 C7         -2.3042    0.4056   -1.1400 C.2       1 <0>        -0.0069
      8 C8         -3.3128    1.2098   -0.7385 C.2       1 <0>        -0.1880
      9 C9         -3.0366    2.5321   -0.3079 C.2       1 <0>         0.4844
     10 O1         -1.9117    2.9832   -0.4120 O.2       1 <0>        -0.4814
     11 O2         -4.0216    3.2901    0.2174 O.3       1 <0>        -0.3443
     12 C10        -3.6721    4.6128    0.6303 C.3       1 <0>         0.1058
     13 C11        -3.8679    5.5804   -0.5385 C.3       1 <0>        -0.0984
     14 C12        -3.4938    6.9966   -0.0965 C.3       1 <0>         0.0696
     15 C13        -4.3879    7.4193    1.0709 C.3       1 <0>        -0.1591
     16 C14        -4.1921    6.4517    2.2398 C.3       1 <0>         0.0989
     17 C15        -4.5662    5.0356    1.7977 C.3       1 <0>         0.1127
     18 O3         -4.3833    4.1318    2.8894 O.3       1 <0>        -0.3429
     19 C16        -5.4396    3.9355    3.7056 C.2       1 <0>         0.4869
     20 O4         -6.4874    4.5166    3.4950 O.2       1 <0>        -0.4712
     21 C17        -5.3285    3.0518    4.8088 C.2       1 <0>        -0.1850
     22 C18        -6.4188    2.7553    5.5493 C.2       1 <0>        -0.0113
     23 C19        -7.7612    3.0633    5.0367 C.ar      1 <0>        -0.0584
     24 C20        -8.1083    2.7172    3.7255 C.ar      1 <0>        -0.0528
     25 C21        -9.3671    3.0071    3.2476 C.ar      1 <0>        -0.1309
     26 C22       -10.2942    3.6424    4.0633 C.ar      1 <0>         0.0904
     27 C23        -9.9561    3.9905    5.3706 C.ar      1 <0>         0.0729
     28 C24        -8.6983    3.6985    5.8599 C.ar      1 <0>        -0.1087
     29 O5        -10.8673    4.6126    6.1657 O.3       1 <0>        -0.4866
     30 O6        -11.5338    3.9261    3.5862 O.3       1 <0>        -0.4866
     31 O7         -5.0271    6.8466    3.3301 O.3       1 <0>        -0.5549
     32 C25        -3.6867    7.9497   -1.2477 C.2       1 <0>         0.4810
     33 O8         -4.7886    8.0803   -1.7530 O.co2     1 <0>        -0.6871
     34 O9         -2.7408    8.5901   -1.6740 O.co2     1 <0>        -0.6810
     35 O10        -2.1264    7.0206    0.3179 O.3       1 <0>        -0.5520
     36 O11         2.3419    0.9938   -2.4383 O.3       1 <0>        -0.4855
     37 O12         2.9919    1.7122    0.1372 O.3       1 <0>        -0.4860
     38 H1         -1.3352    1.1432    1.2670 H         1 <0>         0.1233
     39 H2          0.9885    1.7191    1.8179 H         1 <0>         0.1332
     40 H3         -0.1817    0.4261   -2.8081 H         1 <0>         0.1340
     41 H4         -2.5194   -0.4891   -1.7053 H         1 <0>         0.1488
     42 H5         -4.3295    0.8454   -0.7456 H         1 <0>         0.1475
     43 H6         -2.6291    4.6311    0.9463 H         1 <0>         0.1040
     44 H7         -3.2310    5.2792   -1.3702 H         1 <0>         0.0795
     45 H8         -4.9110    5.5621   -0.8546 H         1 <0>         0.0893
     46 H9         -4.1213    8.4282    1.3859 H         1 <0>         0.0706
     47 H10        -5.4309    7.4010    0.7549 H         1 <0>         0.0879
     48 H11        -3.1490    6.4700    2.5558 H         1 <0>         0.0695
     49 H12        -5.6092    5.0172    1.4817 H         1 <0>         0.0977
     50 H13        -4.3721    2.6157    5.0571 H         1 <0>         0.1443
     51 H14        -6.3039    2.2919    6.5181 H         1 <0>         0.1468
     52 H15        -7.3892    2.2233    3.0888 H         1 <0>         0.1229
     53 H16        -9.6338    2.7399    2.2357 H         1 <0>         0.1334
     54 H17        -8.4368    3.9637    6.8737 H         1 <0>         0.1326
     55 H18       -11.4194    4.0072    6.6794 H         1 <0>         0.3820
     56 H19       -12.1816    3.2229    3.7315 H         1 <0>         0.3838
     57 H20        -4.8453    7.7362    3.6626 H         1 <0>         0.3771
     58 H21        -1.8198    7.8892    0.6121 H         1 <0>         0.3723
     59 H22         2.7824    0.1368   -2.5204 H         1 <0>         0.3821
     60 H23         3.5251    0.9578    0.4229 H         1 <0>         0.3834
@<TRIPOS>BOND
     1    1    6 ar
     2    1    2 ar
     3    1   38 1
     4    2    3 ar
     5    2   39 1
     6    3    4 ar
     7    3   37 1
     8    4    5 ar
     9    4   36 1
    10    5    6 ar
    11    5   40 1
    12    6    7 1
    13    7    8 2
    14    7   41 1
    15    8    9 1
    16    8   42 1
    17    9   10 2
    18    9   11 1
    19   11   12 1
    20   12   17 1
    21   12   13 1
    22   12   43 1
    23   13   14 1
    24   13   44 1
    25   13   45 1
    26   14   15 1
    27   14   32 1
    28   14   35 1
    29   15   16 1
    30   15   46 1
    31   15   47 1
    32   16   17 1
    33   16   31 1
    34   16   48 1
    35   17   18 1
    36   17   49 1
    37   18   19 1
    38   19   20 2
    39   19   21 1
    40   21   22 2
    41   21   50 1
    42   22   23 1
    43   22   51 1
    44   23   28 ar
    45   23   24 ar
    46   24   25 ar
    47   24   52 1
    48   25   26 ar
    49   25   53 1
    50   26   27 ar
    51   26   30 1
    52   27   28 ar
    53   27   29 1
    54   28   54 1
    55   29   55 1
    56   30   56 1
    57   31   57 1
    58   32   33 2
    59   32   34 1
    60   35   58 1
    61   36   59 1
    62   37   60 1
@<TRIPOS>MOLECULE
CHEMBL68013__9
   60    62     0     0     0
SMALL
USER_CHARGES

@<TRIPOS>ATOM
      1 C1         -0.6711   -1.4816    0.5203 C.ar      1 <0>        -0.0581
      2 C2          0.6347   -1.2345    0.8838 C.ar      1 <0>        -0.1302
      3 C3          1.6578   -1.3885   -0.0419 C.ar      1 <0>         0.0907
      4 C4          1.3696   -1.7938   -1.3452 C.ar      1 <0>         0.0752
      5 C5          0.0642   -2.0435   -1.7181 C.ar      1 <0>        -0.1075
      6 C6         -0.9684   -1.8889   -0.7850 C.ar      1 <0>        -0.0600
      7 C7         -2.3602   -2.1537   -1.1754 C.2       1 <0>        -0.0067
      8 C8         -3.3294   -1.2652   -0.8651 C.2       1 <0>        -0.1883
      9 C9         -2.9842    0.0552   -0.4810 C.2       1 <0>         0.4823
     10 O1         -1.8270    0.4245   -0.5456 O.2       1 <0>        -0.4827
     11 O2         -3.9393    0.9021   -0.0436 O.3       1 <0>        -0.3419
     12 C10        -3.5201    2.2171    0.3268 C.3       1 <0>         0.1026
     13 C11        -3.5900    3.1373   -0.8935 C.3       1 <0>        -0.0963
     14 C12        -3.1413    4.5452   -0.4970 C.3       1 <0>         0.0714
     15 C13        -4.0610    5.0834    0.6009 C.3       1 <0>        -0.1560
     16 C14        -3.9911    4.1631    1.8213 C.3       1 <0>         0.0970
     17 C15        -4.4399    2.7552    1.4247 C.3       1 <0>         0.1155
     18 O3         -5.7833    2.8023    0.9399 O.3       1 <0>        -0.3246
     19 C16        -6.7682    2.6386    1.8477 C.2       1 <0>         0.4896
     20 O4         -6.4923    2.4608    3.0190 O.2       1 <0>        -0.4822
     21 C17        -8.1245    2.6740    1.4362 C.2       1 <0>        -0.1823
     22 C18        -9.1112    2.6391    2.3584 C.2       1 <0>        -0.0160
     23 C19        -8.8055    2.9000    3.7719 C.ar      1 <0>        -0.0595
     24 C20        -8.0159    3.9996    4.1279 C.ar      1 <0>        -0.0398
     25 C21        -7.7308    4.2417    5.4536 C.ar      1 <0>        -0.1288
     26 C22        -8.2248    3.3973    6.4393 C.ar      1 <0>         0.0867
     27 C23        -9.0121    2.2998    6.0927 C.ar      1 <0>         0.0677
     28 C24        -9.3077    2.0528    4.7667 C.ar      1 <0>        -0.1115
     29 O5         -9.4937    1.4757    7.0614 O.3       1 <0>        -0.4884
     30 O6         -7.9399    3.6410    7.7447 O.3       1 <0>        -0.4889
     31 O7         -4.8502    4.6657    2.8467 O.3       1 <0>        -0.5545
     32 C25        -3.2101    5.4516   -1.6989 C.2       1 <0>         0.4813
     33 O8         -4.2738    5.6307   -2.2673 O.co2     1 <0>        -0.6874
     34 O9         -2.2022    6.0059   -2.1030 O.co2     1 <0>        -0.6836
     35 O10        -1.7978    4.4981   -0.0122 O.3       1 <0>        -0.5550
     36 O11         2.3749   -1.9425   -2.2488 O.3       1 <0>        -0.4854
     37 O12         2.9431   -1.1435    0.3223 O.3       1 <0>        -0.4860
     38 H1         -1.4644   -1.3652    1.2438 H         1 <0>         0.1223
     39 H2          0.8630   -0.9198    1.8914 H         1 <0>         0.1331
     40 H3         -0.1602   -2.3574   -2.7268 H         1 <0>         0.1344
     41 H4         -2.6082   -3.0585   -1.7104 H         1 <0>         0.1492
     42 H5         -4.3673   -1.5607   -0.9098 H         1 <0>         0.1484
     43 H6         -2.4954    2.1811    0.6965 H         1 <0>         0.1093
     44 H7         -2.9348    2.7539   -1.6757 H         1 <0>         0.0701
     45 H8         -4.6148    3.1732   -1.2633 H         1 <0>         0.0944
     46 H9         -3.7413    6.0864    0.8835 H         1 <0>         0.0634
     47 H10        -5.0858    5.1193    0.2312 H         1 <0>         0.0897
     48 H11        -2.9664    4.1272    2.1910 H         1 <0>         0.0740
     49 H12        -4.3901    2.0996    2.2941 H         1 <0>         0.0903
     50 H13        -8.3689    2.7287    0.3857 H         1 <0>         0.1481
     51 H14       -10.1247    2.4196    2.0567 H         1 <0>         0.1462
     52 H15        -7.6301    4.6577    3.3635 H         1 <0>         0.1285
     53 H16        -7.1213    5.0902    5.7271 H         1 <0>         0.1314
     54 H17        -9.9210    1.2056    4.4974 H         1 <0>         0.1312
     55 H18       -10.3584    1.7373    7.4063 H         1 <0>         0.3812
     56 H19        -8.5827    4.2117    8.1876 H         1 <0>         0.3831
     57 H20        -4.6240    5.5564    3.1477 H         1 <0>         0.3759
     58 H21        -1.4469    5.3577    0.2581 H         1 <0>         0.3714
     59 H22         2.7584   -2.8300   -2.2681 H         1 <0>         0.3822
     60 H23         3.4075   -1.9169    0.6703 H         1 <0>         0.3836
@<TRIPOS>BOND
     1    1    6 ar
     2    1    2 ar
     3    1   38 1
     4    2    3 ar
     5    2   39 1
     6    3    4 ar
     7    3   37 1
     8    4    5 ar
     9    4   36 1
    10    5    6 ar
    11    5   40 1
    12    6    7 1
    13    7    8 2
    14    7   41 1
    15    8    9 1
    16    8   42 1
    17    9   10 2
    18    9   11 1
    19   11   12 1
    20   12   17 1
    21   12   13 1
    22   12   43 1
    23   13   14 1
    24   13   44 1
    25   13   45 1
    26   14   15 1
    27   14   32 1
    28   14   35 1
    29   15   16 1
    30   15   46 1
    31   15   47 1
    32   16   17 1
    33   16   31 1
    34   16   48 1
    35   17   18 1
    36   17   49 1
    37   18   19 1
    38   19   20 2
    39   19   21 1
    40   21   22 2
    41   21   50 1
    42   22   23 1
    43   22   51 1
    44   23   28 ar
    45   23   24 ar
    46   24   25 ar
    47   24   52 1
    48   25   26 ar
    49   25   53 1
    50   26   27 ar
    51   26   30 1
    52   27   28 ar
    53   27   29 1
    54   28   54 1
    55   29   55 1
    56   30   56 1
    57   31   57 1
    58   32   33 2
    59   32   34 1
    60   35   58 1
    61   36   59 1
    62   37   60 1
@<TRIPOS>MOLECULE
CHEMBL68013__10
   60    62     0     0     0
SMALL
USER_CHARGES

@<TRIPOS>ATOM
      1 C1         -0.5757    1.1153    0.4997 C.ar      1 <0>        -0.0555
      2 C2          0.7282    1.4356    0.8088 C.ar      1 <0>        -0.1291
      3 C3          1.7083    1.3954   -0.1736 C.ar      1 <0>         0.0905
      4 C4          1.3786    1.0309   -1.4791 C.ar      1 <0>         0.0742
      5 C5          0.0748    0.7084   -1.7977 C.ar      1 <0>        -0.1083
      6 C6         -0.9144    0.7482   -0.8075 C.ar      1 <0>        -0.0603
      7 C7         -2.3042    0.4056   -1.1400 C.2       1 <0>        -0.0087
      8 C8         -3.3128    1.2098   -0.7385 C.2       1 <0>        -0.1875
      9 C9         -3.0366    2.5321   -0.3079 C.2       1 <0>         0.4831
     10 O1         -1.9117    2.9832   -0.4120 O.2       1 <0>        -0.4797
     11 O2         -4.0216    3.2901    0.2174 O.3       1 <0>        -0.3503
     12 C10        -3.6721    4.6128    0.6303 C.3       1 <0>         0.1056
     13 C11        -3.8679    5.5804   -0.5385 C.3       1 <0>        -0.0964
     14 C12        -3.4938    6.9966   -0.0965 C.3       1 <0>         0.0756
     15 C13        -4.3879    7.4193    1.0709 C.3       1 <0>        -0.1646
     16 C14        -4.1921    6.4517    2.2398 C.3       1 <0>         0.1018
     17 C15        -4.5662    5.0356    1.7977 C.3       1 <0>         0.1135
     18 O3         -4.3833    4.1318    2.8894 O.3       1 <0>        -0.3298
     19 C16        -5.4396    3.9355    3.7056 C.2       1 <0>         0.4849
     20 O4         -6.4874    4.5166    3.4950 O.2       1 <0>        -0.4955
     21 C17        -5.3285    3.0518    4.8088 C.2       1 <0>        -0.1889
     22 C18        -6.4188    2.7553    5.5493 C.2       1 <0>        -0.0061
     23 C19        -7.7612    3.0633    5.0367 C.ar      1 <0>        -0.0622
     24 C20        -8.1083    2.7172    3.7255 C.ar      1 <0>        -0.0522
     25 C21        -9.3671    3.0071    3.2476 C.ar      1 <0>        -0.1311
     26 C22       -10.2942    3.6424    4.0633 C.ar      1 <0>         0.0915
     27 C23        -9.9561    3.9905    5.3706 C.ar      1 <0>         0.0724
     28 C24        -8.6983    3.6985    5.8599 C.ar      1 <0>        -0.1091
     29 O5        -10.8673    4.6126    6.1657 O.3       1 <0>        -0.4866
     30 O6        -11.5338    3.9261    3.5862 O.3       1 <0>        -0.4866
     31 O7         -2.8247    6.4757    2.6541 O.3       1 <0>        -0.5388
     32 C25        -3.6867    7.9497   -1.2477 C.2       1 <0>         0.4779
     33 O8         -4.7886    8.0803   -1.7530 O.co2     1 <0>        -0.6911
     34 O9         -2.7408    8.5901   -1.6740 O.co2     1 <0>        -0.6823
     35 O10        -2.1264    7.0206    0.3179 O.3       1 <0>        -0.5352
     36 O11         2.3419    0.9938   -2.4383 O.3       1 <0>        -0.4855
     37 O12         2.9919    1.7122    0.1372 O.3       1 <0>        -0.4858
     38 H1         -1.3352    1.1432    1.2670 H         1 <0>         0.1231
     39 H2          0.9885    1.7191    1.8179 H         1 <0>         0.1333
     40 H3         -0.1817    0.4261   -2.8081 H         1 <0>         0.1335
     41 H4         -2.5194   -0.4891   -1.7053 H         1 <0>         0.1481
     42 H5         -4.3295    0.8454   -0.7456 H         1 <0>         0.1464
     43 H6         -2.6291    4.6311    0.9463 H         1 <0>         0.1146
     44 H7         -3.2310    5.2792   -1.3702 H         1 <0>         0.0765
     45 H8         -4.9110    5.5621   -0.8546 H         1 <0>         0.0842
     46 H9         -4.1213    8.4282    1.3859 H         1 <0>         0.0714
     47 H10        -5.4309    7.4010    0.7549 H         1 <0>         0.0869
     48 H11        -4.8290    6.7529    3.0714 H         1 <0>         0.0588
     49 H12        -5.6092    5.0172    1.4817 H         1 <0>         0.1017
     50 H13        -4.3721    2.6157    5.0571 H         1 <0>         0.1477
     51 H14        -6.3039    2.2919    6.5181 H         1 <0>         0.1484
     52 H15        -7.3892    2.2233    3.0888 H         1 <0>         0.1238
     53 H16        -9.6338    2.7399    2.2357 H         1 <0>         0.1344
     54 H17        -8.4368    3.9637    6.8737 H         1 <0>         0.1333
     55 H18       -11.4194    4.0072    6.6794 H         1 <0>         0.3828
     56 H19       -12.1816    3.2229    3.7315 H         1 <0>         0.3847
     57 H20        -2.5180    7.3444    2.9483 H         1 <0>         0.3726
     58 H21        -1.8198    7.8892    0.6121 H         1 <0>         0.3655
     59 H22         2.7824    0.1368   -2.5204 H         1 <0>         0.3816
     60 H23         3.5251    0.9578    0.4229 H         1 <0>         0.3829
@<TRIPOS>BOND
     1    1    6 ar
     2    1    2 ar
     3    1   38 1
     4    2    3 ar
     5    2   39 1
     6    3    4 ar
     7    3   37 1
     8    4    5 ar
     9    4   36 1
    10    5    6 ar
    11    5   40 1
    12    6    7 1
    13    7    8 2
    14    7   41 1
    15    8    9 1
    16    8   42 1
    17    9   10 2
    18    9   11 1
    19   11   12 1
    20   12   17 1
    21   12   13 1
    22   12   43 1
    23   13   14 1
    24   13   44 1
    25   13   45 1
    26   14   15 1
    27   14   32 1
    28   14   35 1
    29   15   16 1
    30   15   46 1
    31   15   47 1
    32   16   17 1
    33   16   31 1
    34   16   48 1
    35   17   18 1
    36   17   49 1
    37   18   19 1
    38   19   20 2
    39   19   21 1
    40   21   22 2
    41   21   50 1
    42   22   23 1
    43   22   51 1
    44   23   28 ar
    45   23   24 ar
    46   24   25 ar
    47   24   52 1
    48   25   26 ar
    49   25   53 1
    50   26   27 ar
    51   26   30 1
    52   27   28 ar
    53   27   29 1
    54   28   54 1
    55   29   55 1
    56   30   56 1
    57   31   57 1
    58   32   33 2
    59   32   34 1
    60   35   58 1
    61   36   59 1
    62   37   60 1
@<TRIPOS>MOLECULE
CHEMBL68013__11
   60    62     0     0     0
SMALL
USER_CHARGES

@<TRIPOS>ATOM
      1 C1         -0.6684   -1.4759    0.5157 C.ar      1 <0>        -0.0569
      2 C2          0.6374   -1.2282    0.8787 C.ar      1 <0>        -0.1293
      3 C3          1.6601   -1.3806   -0.0478 C.ar      1 <0>         0.0906
      4 C4          1.3715   -1.7849   -1.3512 C.ar      1 <0>         0.0746
      5 C5          0.0660   -2.0353   -1.7236 C.ar      1 <0>        -0.1080
      6 C6         -0.9661   -1.8823   -0.7898 C.ar      1 <0>        -0.0597
      7 C7         -2.3579   -2.1478   -1.1797 C.2       1 <0>        -0.0086
      8 C8         -3.3276   -1.2601   -0.8685 C.2       1 <0>        -0.1875
      9 C9         -2.9831    0.0602   -0.4835 C.2       1 <0>         0.4809
     10 O1         -1.8261    0.4302   -0.5480 O.2       1 <0>        -0.4811
     11 O2         -3.9386    0.9062   -0.0454 O.3       1 <0>        -0.3478
     12 C10        -3.5202    2.2212    0.3258 C.3       1 <0>         0.1056
     13 C11        -3.5907    3.1422   -0.8939 C.3       1 <0>        -0.0950
     14 C12        -3.1427    4.5501   -0.4964 C.3       1 <0>         0.0775
     15 C13        -4.0626    5.0870    0.6020 C.3       1 <0>        -0.1625
     16 C14        -3.9921    4.1660    1.8217 C.3       1 <0>         0.1028
     17 C15        -4.4401    2.7581    1.4242 C.3       1 <0>         0.1131
     18 O3         -5.7836    2.8048    0.9396 O.3       1 <0>        -0.3206
     19 C16        -6.7682    2.6399    1.8474 C.2       1 <0>         0.4866
     20 O4         -6.4922    2.4614    3.0186 O.2       1 <0>        -0.4974
     21 C17        -8.1246    2.6747    1.4361 C.2       1 <0>        -0.1864
     22 C18        -9.1112    2.6391    2.3584 C.2       1 <0>        -0.0085
     23 C19        -8.8055    2.9000    3.7719 C.ar      1 <0>        -0.0584
     24 C20        -8.0159    3.9996    4.1279 C.ar      1 <0>        -0.0534
     25 C21        -7.7308    4.2417    5.4536 C.ar      1 <0>        -0.1314
     26 C22        -8.2248    3.3973    6.4393 C.ar      1 <0>         0.0892
     27 C23        -9.0121    2.2998    6.0927 C.ar      1 <0>         0.0725
     28 C24        -9.3077    2.0528    4.7667 C.ar      1 <0>        -0.1093
     29 O5         -9.4937    1.4757    7.0614 O.3       1 <0>        -0.4873
     30 O6         -7.9399    3.6410    7.7447 O.3       1 <0>        -0.4878
     31 O7         -2.6485    4.1193    2.3062 O.3       1 <0>        -0.5421
     32 C25        -3.2122    5.4573   -1.6978 C.2       1 <0>         0.4783
     33 O8         -4.2761    5.6362   -2.2659 O.co2     1 <0>        -0.6913
     34 O9         -2.2046    6.0124   -2.1016 O.co2     1 <0>        -0.6846
     35 O10        -1.7992    4.5035   -0.0119 O.3       1 <0>        -0.5382
     36 O11         2.3764   -1.9320   -2.2555 O.3       1 <0>        -0.4854
     37 O12         2.9453   -1.1348    0.3160 O.3       1 <0>        -0.4858
     38 H1         -1.4615   -1.3608    1.2397 H         1 <0>         0.1222
     39 H2          0.8660   -0.9142    1.8864 H         1 <0>         0.1333
     40 H3         -0.1586   -2.3484   -2.7325 H         1 <0>         0.1339
     41 H4         -2.6056   -3.0525   -1.7151 H         1 <0>         0.1486
     42 H5         -4.3653   -1.5562   -0.9130 H         1 <0>         0.1473
     43 H6         -2.4953    2.1856    0.6954 H         1 <0>         0.1197
     44 H7         -2.9354    2.7598   -1.6764 H         1 <0>         0.0676
     45 H8         -4.6155    3.1778   -1.2635 H         1 <0>         0.0894
     46 H9         -3.7435    6.0900    0.8851 H         1 <0>         0.0646
     47 H10        -5.0874    5.1226    0.2324 H         1 <0>         0.0885
     48 H11        -4.6474    4.5484    2.6042 H         1 <0>         0.0570
     49 H12        -4.3898    2.1019    2.2931 H         1 <0>         0.0923
     50 H13        -8.3692    2.7297    0.3856 H         1 <0>         0.1525
     51 H14       -10.1246    2.4190    2.0568 H         1 <0>         0.1497
     52 H15        -7.6301    4.6577    3.3635 H         1 <0>         0.1236
     53 H16        -7.1213    5.0902    5.7271 H         1 <0>         0.1330
     54 H17        -9.9210    1.2056    4.4974 H         1 <0>         0.1339
     55 H18       -10.3584    1.7373    7.4063 H         1 <0>         0.3830
     56 H19        -8.5827    4.2117    8.1876 H         1 <0>         0.3847
     57 H20        -2.2980    4.9789    2.5771 H         1 <0>         0.3789
     58 H21        -1.4487    5.3630    0.2590 H         1 <0>         0.3644
     59 H22         2.7606   -2.8192   -2.2758 H         1 <0>         0.3818
     60 H23         3.4106   -1.9083    0.6630 H         1 <0>         0.3831
@<TRIPOS>BOND
     1    1    6 ar
     2    1    2 ar
     3    1   38 1
     4    2    3 ar
     5    2   39 1
     6    3    4 ar
     7    3   37 1
     8    4    5 ar
     9    4   36 1
    10    5    6 ar
    11    5   40 1
    12    6    7 1
    13    7    8 2
    14    7   41 1
    15    8    9 1
    16    8   42 1
    17    9   10 2
    18    9   11 1
    19   11   12 1
    20   12   17 1
    21   12   13 1
    22   12   43 1
    23   13   14 1
    24   13   44 1
    25   13   45 1
    26   14   15 1
    27   14   32 1
    28   14   35 1
    29   15   16 1
    30   15   46 1
    31   15   47 1
    32   16   17 1
    33   16   31 1
    34   16   48 1
    35   17   18 1
    36   17   49 1
    37   18   19 1
    38   19   20 2
    39   19   21 1
    40   21   22 2
    41   21   50 1
    42   22   23 1
    43   22   51 1
    44   23   28 ar
    45   23   24 ar
    46   24   25 ar
    47   24   52 1
    48   25   26 ar
    49   25   53 1
    50   26   27 ar
    51   26   30 1
    52   27   28 ar
    53   27   29 1
    54   28   54 1
    55   29   55 1
    56   30   56 1
    57   31   57 1
    58   32   33 2
    59   32   34 1
    60   35   58 1
    61   36   59 1
    62   37   60 1
@<TRIPOS>MOLECULE
CHEMBL68013__12
   60    62     0     0     0
SMALL
USER_CHARGES

@<TRIPOS>ATOM
      1 C1         -0.5757    1.1153    0.4997 C.ar      1 <0>        -0.0538
      2 C2          0.7282    1.4356    0.8088 C.ar      1 <0>        -0.1263
      3 C3          1.7083    1.3954   -0.1736 C.ar      1 <0>         0.0923
      4 C4          1.3786    1.0309   -1.4791 C.ar      1 <0>         0.0722
      5 C5          0.0748    0.7084   -1.7977 C.ar      1 <0>        -0.1093
      6 C6         -0.9144    0.7482   -0.8075 C.ar      1 <0>        -0.0629
      7 C7         -2.3042    0.4056   -1.1400 C.2       1 <0>        -0.0088
      8 C8         -3.3128    1.2098   -0.7385 C.2       1 <0>        -0.1870
      9 C9         -3.0366    2.5321   -0.3079 C.2       1 <0>         0.4782
     10 O1         -1.9117    2.9832   -0.4120 O.2       1 <0>        -0.4723
     11 O2         -4.0216    3.2901    0.2174 O.3       1 <0>        -0.3495
     12 C10        -3.6721    4.6128    0.6303 C.3       1 <0>         0.0860
     13 C11        -3.8679    5.5804   -0.5385 C.3       1 <0>        -0.0980
     14 C12        -3.4938    6.9966   -0.0965 C.3       1 <0>         0.0627
     15 C13        -4.3879    7.4193    1.0709 C.3       1 <0>        -0.1560
     16 C14        -4.1921    6.4517    2.2398 C.3       1 <0>         0.0806
     17 C15        -4.5662    5.0356    1.7977 C.3       1 <0>         0.1276
     18 O3         -4.3833    4.1318    2.8894 O.3       1 <0>        -0.3347
     19 C16        -5.4396    3.9355    3.7056 C.2       1 <0>         0.4865
     20 O4         -6.4874    4.5166    3.4950 O.2       1 <0>        -0.4780
     21 C17        -5.3285    3.0518    4.8088 C.2       1 <0>        -0.1787
     22 C18        -6.4188    2.7553    5.5493 C.2       1 <0>        -0.0189
     23 C19        -7.7612    3.0633    5.0367 C.ar      1 <0>        -0.0529
     24 C20        -8.1083    2.7172    3.7255 C.ar      1 <0>        -0.0526
     25 C21        -9.3671    3.0071    3.2476 C.ar      1 <0>        -0.1316
     26 C22       -10.2942    3.6424    4.0633 C.ar      1 <0>         0.0872
     27 C23        -9.9561    3.9905    5.3706 C.ar      1 <0>         0.0727
     28 C24        -8.6983    3.6985    5.8599 C.ar      1 <0>        -0.1097
     29 O5        -10.8673    4.6126    6.1657 O.3       1 <0>        -0.4871
     30 O6        -11.5338    3.9261    3.5862 O.3       1 <0>        -0.4876
     31 O7         -5.0271    6.8466    3.3301 O.3       1 <0>        -0.5614
     32 C25        -2.0517    7.0219    0.3405 C.2       1 <0>         0.4797
     33 O8         -1.2545    7.7467   -0.2301 O.co2     1 <0>        -0.6760
     34 O9         -1.6823    6.3176    1.2646 O.co2     1 <0>        -0.6729
     35 O10        -3.6767    7.9003   -1.1882 O.3       1 <0>        -0.5524
     36 O11         2.3419    0.9938   -2.4383 O.3       1 <0>        -0.4856
     37 O12         2.9919    1.7122    0.1372 O.3       1 <0>        -0.4846
     38 H1         -1.3352    1.1432    1.2670 H         1 <0>         0.1240
     39 H2          0.9885    1.7191    1.8179 H         1 <0>         0.1347
     40 H3         -0.1817    0.4261   -2.8081 H         1 <0>         0.1323
     41 H4         -2.5194   -0.4891   -1.7053 H         1 <0>         0.1471
     42 H5         -4.3295    0.8454   -0.7456 H         1 <0>         0.1455
     43 H6         -2.6291    4.6311    0.9463 H         1 <0>         0.1483
     44 H7         -3.2310    5.2792   -1.3702 H         1 <0>         0.0769
     45 H8         -4.9110    5.5621   -0.8546 H         1 <0>         0.0654
     46 H9         -4.1213    8.4282    1.3859 H         1 <0>         0.0676
     47 H10        -5.4309    7.4010    0.7549 H         1 <0>         0.0662
     48 H11        -3.1490    6.4700    2.5558 H         1 <0>         0.1158
     49 H12        -5.6092    5.0172    1.4817 H         1 <0>         0.0839
     50 H13        -4.3721    2.6157    5.0571 H         1 <0>         0.1455
     51 H14        -6.3039    2.2919    6.5181 H         1 <0>         0.1466
     52 H15        -7.3892    2.2233    3.0888 H         1 <0>         0.1231
     53 H16        -9.6338    2.7399    2.2357 H         1 <0>         0.1320
     54 H17        -8.4368    3.9637    6.8737 H         1 <0>         0.1327
     55 H18       -11.4194    4.0072    6.6794 H         1 <0>         0.3816
     56 H19       -12.1816    3.2229    3.7315 H         1 <0>         0.3830
     57 H20        -4.8453    7.7362    3.6626 H         1 <0>         0.3734
     58 H21        -3.4579    8.8188   -0.9793 H         1 <0>         0.3747
     59 H22         2.7824    0.1368   -2.5204 H         1 <0>         0.3803
     60 H23         3.5251    0.9578    0.4229 H         1 <0>         0.3820
@<TRIPOS>BOND
     1    1    6 ar
     2    1    2 ar
     3    1   38 1
     4    2    3 ar
     5    2   39 1
     6    3    4 ar
     7    3   37 1
     8    4    5 ar
     9    4   36 1
    10    5    6 ar
    11    5   40 1
    12    6    7 1
    13    7    8 2
    14    7   41 1
    15    8    9 1
    16    8   42 1
    17    9   10 2
    18    9   11 1
    19   11   12 1
    20   12   17 1
    21   12   13 1
    22   12   43 1
    23   13   14 1
    24   13   44 1
    25   13   45 1
    26   14   15 1
    27   14   32 1
    28   14   35 1
    29   15   16 1
    30   15   46 1
    31   15   47 1
    32   16   17 1
    33   16   31 1
    34   16   48 1
    35   17   18 1
    36   17   49 1
    37   18   19 1
    38   19   20 2
    39   19   21 1
    40   21   22 2
    41   21   50 1
    42   22   23 1
    43   22   51 1
    44   23   28 ar
    45   23   24 ar
    46   24   25 ar
    47   24   52 1
    48   25   26 ar
    49   25   53 1
    50   26   27 ar
    51   26   30 1
    52   27   28 ar
    53   27   29 1
    54   28   54 1
    55   29   55 1
    56   30   56 1
    57   31   57 1
    58   32   33 2
    59   32   34 1
    60   35   58 1
    61   36   59 1
    62   37   60 1
@<TRIPOS>MOLECULE
CHEMBL68013__13
   60    62     0     0     0
SMALL
USER_CHARGES

@<TRIPOS>ATOM
      1 C1          0.0436    0.0370    1.9313 C.ar      1 <0>        -0.0571
      2 C2          1.2660    0.3009    2.5095 C.ar      1 <0>        -0.1321
      3 C3          2.4387   -0.0252    1.8418 C.ar      1 <0>         0.0835
      4 C4          2.3861   -0.6214    0.5818 C.ar      1 <0>         0.0743
      5 C5          1.1658   -0.8894   -0.0051 C.ar      1 <0>        -0.1113
      6 C6         -0.0176   -0.5613    0.6677 C.ar      1 <0>        -0.0466
      7 C7         -1.3200   -0.8444    0.0487 C.2       1 <0>        -0.0303
      8 C8         -2.2769    0.1090    0.0222 C.2       1 <0>        -0.1642
      9 C9         -1.9355    1.4629    0.2682 C.2       1 <0>         0.4849
     10 O1         -0.7681    1.7844    0.3844 O.2       1 <0>        -0.5126
     11 O2         -2.9057    2.3948    0.3736 O.3       1 <0>        -0.2741
     12 C10        -2.4897    3.7392    0.6220 C.3       1 <0>         0.1094
     13 C11        -2.2657    4.4581   -0.7099 C.3       1 <0>        -0.1041
     14 C12        -3.5698    4.4674   -1.5100 C.3       1 <0>         0.0776
     15 C13        -4.6524    5.1971   -0.7123 C.3       1 <0>        -0.1620
     16 C14        -4.8763    4.4782    0.6196 C.3       1 <0>         0.1046
     17 C15        -3.5723    4.4689    1.4197 C.3       1 <0>         0.1071
     18 O3         -3.7814    3.7975    2.6637 O.3       1 <0>        -0.3280
     19 C16        -4.1777    4.5534    3.7088 C.2       1 <0>         0.4827
     20 O4         -4.3409    5.7504    3.5663 O.2       1 <0>        -0.4961
     21 C17        -4.4038    3.9525    4.9729 C.2       1 <0>        -0.1893
     22 C18        -4.9230    4.6822    5.9844 C.2       1 <0>        -0.0053
     23 C19        -5.5599    5.9768    5.7051 C.ar      1 <0>        -0.0622
     24 C20        -6.4859    6.0929    4.6619 C.ar      1 <0>        -0.0525
     25 C21        -7.0813    7.3075    4.4022 C.ar      1 <0>        -0.1314
     26 C22        -6.7655    8.4186    5.1730 C.ar      1 <0>         0.0919
     27 C23        -5.8439    8.3111    6.2140 C.ar      1 <0>         0.0729
     28 C24        -5.2465    7.0961    6.4851 C.ar      1 <0>        -0.1088
     29 O5         -5.5377    9.4020    6.9662 O.3       1 <0>        -0.4865
     30 O6         -7.3556    9.6137    4.9118 O.3       1 <0>        -0.4865
     31 O7         -5.2924    3.1338    0.3712 O.3       1 <0>        -0.5208
     32 C25        -3.3492    5.1755   -2.8219 C.2       1 <0>         0.4749
     33 O8         -3.5314    4.5837   -3.8722 O.co2     1 <0>        -0.6858
     34 O9         -2.9886    6.3401   -2.8329 O.co2     1 <0>        -0.6937
     35 O10        -3.9858    3.1230   -1.7584 O.3       1 <0>        -0.5244
     36 O11         3.5375   -0.9383   -0.0688 O.3       1 <0>        -0.4868
     37 O12         3.6407    0.2374    2.4169 O.3       1 <0>        -0.4878
     38 H1         -0.8671    0.2878    2.4549 H         1 <0>         0.1227
     39 H2          1.3121    0.7630    3.4845 H         1 <0>         0.1306
     40 H3          1.1238   -1.3509   -0.9806 H         1 <0>         0.1334
     41 H4         -1.5123   -1.8146   -0.3850 H         1 <0>         0.1457
     42 H5         -3.3017   -0.1602   -0.1864 H         1 <0>         0.1476
     43 H6         -1.5606    3.7326    1.1920 H         1 <0>         0.0807
     44 H7         -1.9484    5.4835   -0.5204 H         1 <0>         0.0911
     45 H8         -1.4945    3.9382   -1.2782 H         1 <0>         0.0779
     46 H9         -4.3351    6.2225   -0.5228 H         1 <0>         0.0813
     47 H10        -5.5815    5.2037   -1.2823 H         1 <0>         0.0677
     48 H11        -5.6476    4.9981    1.1879 H         1 <0>         0.0475
     49 H12        -3.2549    5.4943    1.6092 H         1 <0>         0.1092
     50 H13        -4.1611    2.9115    5.1271 H         1 <0>         0.1481
     51 H14        -4.8699    4.3141    6.9983 H         1 <0>         0.1485
     52 H15        -6.7332    5.2305    4.0605 H         1 <0>         0.1228
     53 H16        -7.7954    7.3960    3.5968 H         1 <0>         0.1338
     54 H17        -4.5359    7.0106    7.2939 H         1 <0>         0.1337
     55 H18        -6.1035    9.5161    7.7421 H         1 <0>         0.3830
     56 H19        -8.1809    9.7586    5.3944 H         1 <0>         0.3850
     57 H20        -6.1146    3.0633   -0.1329 H         1 <0>         0.3634
     58 H21        -4.8080    3.0525   -2.2625 H         1 <0>         0.3592
     59 H22         3.8644   -1.8283    0.1210 H         1 <0>         0.3816
     60 H23         3.9822   -0.4848    2.9618 H         1 <0>         0.3822
@<TRIPOS>BOND
     1    1    6 ar
     2    1    2 ar
     3    1   38 1
     4    2    3 ar
     5    2   39 1
     6    3    4 ar
     7    3   37 1
     8    4    5 ar
     9    4   36 1
    10    5    6 ar
    11    5   40 1
    12    6    7 1
    13    7    8 2
    14    7   41 1
    15    8    9 1
    16    8   42 1
    17    9   10 2
    18    9   11 1
    19   11   12 1
    20   12   17 1
    21   12   13 1
    22   12   43 1
    23   13   14 1
    24   13   44 1
    25   13   45 1
    26   14   15 1
    27   14   32 1
    28   14   35 1
    29   15   16 1
    30   15   46 1
    31   15   47 1
    32   16   17 1
    33   16   31 1
    34   16   48 1
    35   17   18 1
    36   17   49 1
    37   18   19 1
    38   19   20 2
    39   19   21 1
    40   21   22 2
    41   21   50 1
    42   22   23 1
    43   22   51 1
    44   23   28 ar
    45   23   24 ar
    46   24   25 ar
    47   24   52 1
    48   25   26 ar
    49   25   53 1
    50   26   27 ar
    51   26   30 1
    52   27   28 ar
    53   27   29 1
    54   28   54 1
    55   29   55 1
    56   30   56 1
    57   31   57 1
    58   32   33 2
    59   32   34 1
    60   35   58 1
    61   36   59 1
    62   37   60 1
@<TRIPOS>MOLECULE
CHEMBL68013__14
   60    62     0     0     0
SMALL
USER_CHARGES

@<TRIPOS>ATOM
      1 C1         -2.4018   -0.4898    1.5052 C.ar      1 <0>        -0.0590
      2 C2         -1.1365   -0.2630    2.0010 C.ar      1 <0>        -0.1317
      3 C3         -0.0222   -0.6918    1.2926 C.ar      1 <0>         0.0862
      4 C4         -0.1772   -1.3542    0.0749 C.ar      1 <0>         0.0754
      5 C5         -1.4412   -1.5857   -0.4294 C.ar      1 <0>        -0.1089
      6 C6         -2.5657   -1.1540    0.2845 C.ar      1 <0>        -0.0523
      7 C7         -3.9141   -1.3977   -0.2466 C.2       1 <0>        -0.0175
      8 C8         -4.8189   -0.3950   -0.2789 C.2       1 <0>        -0.1751
      9 C9         -4.3927    0.9493   -0.1322 C.2       1 <0>         0.4942
     10 O1         -3.2052    1.2105   -0.0975 O.2       1 <0>        -0.5003
     11 O2         -5.3045    1.9388   -0.0311 O.3       1 <0>        -0.3126
     12 C10        -4.8042    3.2695    0.1145 C.3       1 <0>         0.1045
     13 C11        -4.6176    3.8983   -1.2677 C.3       1 <0>        -0.1007
     14 C12        -5.9623    3.9359   -1.9967 C.3       1 <0>         0.0737
     15 C13        -6.9580    4.7693   -1.1874 C.3       1 <0>        -0.1540
     16 C14        -7.1446    4.1405    0.1949 C.3       1 <0>         0.0955
     17 C15        -5.7999    4.1029    0.9238 C.3       1 <0>         0.1152
     18 O3         -5.2997    5.4335    1.0695 O.3       1 <0>        -0.3305
     19 C16        -5.6542    6.1024    2.1864 C.2       1 <0>         0.4912
     20 O4         -6.3689    5.5690    3.0138 O.2       1 <0>        -0.4769
     21 C17        -5.1937    7.4268    2.3958 C.2       1 <0>        -0.1813
     22 C18        -5.4400    8.0501    3.5689 C.2       1 <0>        -0.0150
     23 C19        -5.8770    7.2723    4.7366 C.ar      1 <0>        -0.0531
     24 C20        -5.2071    6.0939    5.0858 C.ar      1 <0>        -0.0548
     25 C21        -5.6189    5.3668    6.1808 C.ar      1 <0>        -0.1319
     26 C22        -6.6979    5.7996    6.9404 C.ar      1 <0>         0.0872
     27 C23        -7.3706    6.9724    6.5990 C.ar      1 <0>         0.0740
     28 C24        -6.9610    7.7107    5.5063 C.ar      1 <0>        -0.1087
     29 O5         -8.4267    7.3923    7.3458 O.3       1 <0>        -0.4871
     30 O6         -7.0996    5.0781    8.0187 O.3       1 <0>        -0.4879
     31 O7         -8.0746    4.9189    0.9507 O.3       1 <0>        -0.5596
     32 C25        -5.7785    4.5553   -3.3581 C.2       1 <0>         0.4783
     33 O8         -6.0507    3.9165   -4.3603 O.co2     1 <0>        -0.6870
     34 O9         -5.3577    5.6953   -3.4575 O.co2     1 <0>        -0.6901
     35 O10        -6.4625    2.6053   -2.1423 O.3       1 <0>        -0.5438
     36 O11         0.9172   -1.7717   -0.6160 O.3       1 <0>        -0.4863
     37 O12         1.2225   -0.4653    1.7866 O.3       1 <0>        -0.4874
     38 H1         -3.2670   -0.1590    2.0606 H         1 <0>         0.1221
     39 H2         -1.0112    0.2501    2.9431 H         1 <0>         0.1316
     40 H3         -1.5624   -2.0985   -1.3722 H         1 <0>         0.1346
     41 H4         -4.1818   -2.3785   -0.6111 H         1 <0>         0.1487
     42 H5         -5.8667   -0.6173   -0.4165 H         1 <0>         0.1491
     43 H6         -3.8463    3.2427    0.6338 H         1 <0>         0.0896
     44 H7         -4.2361    4.9133   -1.1566 H         1 <0>         0.1006
     45 H8         -3.9083    3.3046   -1.8443 H         1 <0>         0.0711
     46 H9         -6.5764    5.7843   -1.0763 H         1 <0>         0.0847
     47 H10        -7.9160    4.7961   -1.7067 H         1 <0>         0.0601
     48 H11        -7.5262    3.1255    0.0838 H         1 <0>         0.0798
     49 H12        -5.9329    3.6549    1.9085 H         1 <0>         0.0899
     50 H13        -4.6460    7.9375    1.6176 H         1 <0>         0.1495
     51 H14        -5.3156    9.1200    3.6484 H         1 <0>         0.1486
     52 H15        -4.3679    5.7548    4.4967 H         1 <0>         0.1220
     53 H16        -5.1015    4.4576    6.4491 H         1 <0>         0.1315
     54 H17        -7.4784    8.6216    5.2436 H         1 <0>         0.1337
     55 H18        -8.1840    7.9778    8.0761 H         1 <0>         0.3824
     56 H19        -6.6677    5.3329    8.8455 H         1 <0>         0.3836
     57 H20        -8.9507    4.9860    0.5471 H         1 <0>         0.3744
     58 H21        -7.3144    2.5529   -2.5970 H         1 <0>         0.3650
     59 H22         1.2065   -2.6666   -0.3912 H         1 <0>         0.3825
     60 H23         1.5552   -1.1738    2.3545 H         1 <0>         0.3832
@<TRIPOS>BOND
     1    1    6 ar
     2    1    2 ar
     3    1   38 1
     4    2    3 ar
     5    2   39 1
     6    3    4 ar
     7    3   37 1
     8    4    5 ar
     9    4   36 1
    10    5    6 ar
    11    5   40 1
    12    6    7 1
    13    7    8 2
    14    7   41 1
    15    8    9 1
    16    8   42 1
    17    9   10 2
    18    9   11 1
    19   11   12 1
    20   12   17 1
    21   12   13 1
    22   12   43 1
    23   13   14 1
    24   13   44 1
    25   13   45 1
    26   14   15 1
    27   14   32 1
    28   14   35 1
    29   15   16 1
    30   15   46 1
    31   15   47 1
    32   16   17 1
    33   16   31 1
    34   16   48 1
    35   17   18 1
    36   17   49 1
    37   18   19 1
    38   19   20 2
    39   19   21 1
    40   21   22 2
    41   21   50 1
    42   22   23 1
    43   22   51 1
    44   23   28 ar
    45   23   24 ar
    46   24   25 ar
    47   24   52 1
    48   25   26 ar
    49   25   53 1
    50   26   27 ar
    51   26   30 1
    52   27   28 ar
    53   27   29 1
    54   28   54 1
    55   29   55 1
    56   30   56 1
    57   31   57 1
    58   32   33 2
    59   32   34 1
    60   35   58 1
    61   36   59 1
    62   37   60 1
@<TRIPOS>MOLECULE
CHEMBL68013__15
   60    62     0     0     0
SMALL
USER_CHARGES

@<TRIPOS>ATOM
      1 C1          0.0480    0.0408    1.9341 C.ar      1 <0>        -0.0576
      2 C2          1.2697    0.3053    2.5136 C.ar      1 <0>        -0.1318
      3 C3          2.4432   -0.0203    1.8471 C.ar      1 <0>         0.0855
      4 C4          2.3922   -0.6166    0.5872 C.ar      1 <0>         0.0746
      5 C5          1.1726   -0.8852   -0.0010 C.ar      1 <0>        -0.1098
      6 C6         -0.0117   -0.5576    0.6706 C.ar      1 <0>        -0.0512
      7 C7         -1.3133   -0.8414    0.0502 C.2       1 <0>        -0.0210
      8 C8         -2.2707    0.1114    0.0231 C.2       1 <0>        -0.1727
      9 C9         -1.9304    1.4655    0.2695 C.2       1 <0>         0.4921
     10 O1         -0.7632    1.7878    0.3864 O.2       1 <0>        -0.5043
     11 O2         -2.9012    2.3968    0.3744 O.3       1 <0>        -0.3066
     12 C10        -2.4862    3.7414    0.6232 C.3       1 <0>         0.1075
     13 C11        -2.2620    4.4606   -0.7085 C.3       1 <0>        -0.1050
     14 C12        -3.5656    4.4691   -1.5094 C.3       1 <0>         0.0718
     15 C13        -4.6491    5.1981   -0.7122 C.3       1 <0>        -0.1560
     16 C14        -4.8734    4.4788    0.6195 C.3       1 <0>         0.0994
     17 C15        -3.5698    4.4703    1.4204 C.3       1 <0>         0.1120
     18 O3         -3.7792    3.7985    2.6641 O.3       1 <0>        -0.3410
     19 C16        -4.1766    4.5541    3.7091 C.2       1 <0>         0.4849
     20 O4         -4.3405    5.7510    3.5667 O.2       1 <0>        -0.4728
     21 C17        -4.4031    3.9529    4.9730 C.2       1 <0>        -0.1883
     22 C18        -4.9230    4.6822    5.9844 C.2       1 <0>        -0.0088
     23 C19        -5.5599    5.9768    5.7051 C.ar      1 <0>        -0.0659
     24 C20        -6.4859    6.0929    4.6619 C.ar      1 <0>        -0.0398
     25 C21        -7.0813    7.3075    4.4022 C.ar      1 <0>        -0.1281
     26 C22        -6.7655    8.4186    5.1730 C.ar      1 <0>         0.0904
     27 C23        -5.8439    8.3111    6.2140 C.ar      1 <0>         0.0685
     28 C24        -5.2465    7.0961    6.4851 C.ar      1 <0>        -0.1104
     29 O5         -5.5377    9.4020    6.9662 O.3       1 <0>        -0.4872
     30 O6         -7.3556    9.6137    4.9118 O.3       1 <0>        -0.4872
     31 O7         -5.8854    5.1596    1.3640 O.3       1 <0>        -0.5599
     32 C25        -3.3447    5.1776   -2.8210 C.2       1 <0>         0.4778
     33 O8         -3.5259    4.5858   -3.8715 O.co2     1 <0>        -0.6846
     34 O9         -2.9848    6.3424   -2.8317 O.co2     1 <0>        -0.6898
     35 O10        -3.9806    3.1245   -1.7582 O.3       1 <0>        -0.5406
     36 O11         3.5444   -0.9330   -0.0623 O.3       1 <0>        -0.4865
     37 O12         3.6445    0.2429    2.4235 O.3       1 <0>        -0.4875
     38 H1         -0.8634    0.2912    2.4568 H         1 <0>         0.1231
     39 H2          1.3145    0.7675    3.4886 H         1 <0>         0.1315
     40 H3          1.1318   -1.3469   -0.9765 H         1 <0>         0.1340
     41 H4         -1.5045   -1.8116   -0.3839 H         1 <0>         0.1474
     42 H5         -3.2953   -0.1584   -0.1864 H         1 <0>         0.1477
     43 H6         -1.5575    3.7353    1.1937 H         1 <0>         0.0896
     44 H7         -1.9454    5.4862   -0.5187 H         1 <0>         0.0961
     45 H8         -1.4900    3.9413   -1.2764 H         1 <0>         0.0804
     46 H9         -4.3326    6.2237   -0.5224 H         1 <0>         0.0828
     47 H10        -5.5778    5.2041   -1.2827 H         1 <0>         0.0668
     48 H11        -5.1899    3.4532    0.4297 H         1 <0>         0.0762
     49 H12        -3.2532    5.4959    1.6102 H         1 <0>         0.1037
     50 H13        -4.1600    2.9120    5.1271 H         1 <0>         0.1445
     51 H14        -4.8705    4.3138    6.9983 H         1 <0>         0.1460
     52 H15        -6.7332    5.2305    4.0605 H         1 <0>         0.1275
     53 H16        -7.7954    7.3960    3.5968 H         1 <0>         0.1327
     54 H17        -4.5359    7.0106    7.2939 H         1 <0>         0.1314
     55 H18        -6.1035    9.5161    7.7421 H         1 <0>         0.3813
     56 H19        -8.1809    9.7586    5.3944 H         1 <0>         0.3834
     57 H20        -6.7411    5.2034    0.9158 H         1 <0>         0.3732
     58 H21        -4.8024    3.0536   -2.2627 H         1 <0>         0.3656
     59 H22         3.8715   -1.8229    0.1280 H         1 <0>         0.3821
     60 H23         3.9858   -0.4791    2.9688 H         1 <0>         0.3829
@<TRIPOS>BOND
     1    1    6 ar
     2    1    2 ar
     3    1   38 1
     4    2    3 ar
     5    2   39 1
     6    3    4 ar
     7    3   37 1
     8    4    5 ar
     9    4   36 1
    10    5    6 ar
    11    5   40 1
    12    6    7 1
    13    7    8 2
    14    7   41 1
    15    8    9 1
    16    8   42 1
    17    9   10 2
    18    9   11 1
    19   11   12 1
    20   12   17 1
    21   12   13 1
    22   12   43 1
    23   13   14 1
    24   13   44 1
    25   13   45 1
    26   14   15 1
    27   14   32 1
    28   14   35 1
    29   15   16 1
    30   15   46 1
    31   15   47 1
    32   16   17 1
    33   16   31 1
    34   16   48 1
    35   17   18 1
    36   17   49 1
    37   18   19 1
    38   19   20 2
    39   19   21 1
    40   21   22 2
    41   21   50 1
    42   22   23 1
    43   22   51 1
    44   23   28 ar
    45   23   24 ar
    46   24   25 ar
    47   24   52 1
    48   25   26 ar
    49   25   53 1
    50   26   27 ar
    51   26   30 1
    52   27   28 ar
    53   27   29 1
    54   28   54 1
    55   29   55 1
    56   30   56 1
    57   31   57 1
    58   32   33 2
    59   32   34 1
    60   35   58 1
    61   36   59 1
    62   37   60 1
@<TRIPOS>MOLECULE
CHEMBL413552
   33    35     0     0     0
SMALL
USER_CHARGES

@<TRIPOS>ATOM
      1 C1          0.9737   -0.2755   -0.9647 C.ar      1 <0>        -0.0742
      2 C2          2.1564    0.4332   -0.9712 C.ar      1 <0>        -0.1344
      3 C3          2.3850    1.4165   -0.0194 C.ar      1 <0>         0.1038
      4 C4          1.4203    1.6924    0.9484 C.ar      1 <0>         0.0785
      5 C5          0.2330    0.9866    0.9613 C.ar      1 <0>        -0.0759
      6 C6          0.0021   -0.0041    0.0020 C.ar      1 <0>        -0.0455
      7 C7         -1.2637   -0.7605    0.0105 C.2       1 <0>         0.1367
      8 C8         -2.4364   -0.0758    0.1244 C.2       1 <0>        -0.0427
      9 C9         -3.6629   -0.7887    0.1336 C.2       1 <0>         0.4017
     10 O1         -4.7325   -0.2090    0.2337 O.2       1 <0>        -0.4453
     11 C10        -3.5955   -2.2543    0.0175 C.ar      1 <0>        -0.2536
     12 C11        -2.3322   -2.8619   -0.0951 C.ar      1 <0>         0.1793
     13 O2         -1.2182   -2.0990   -0.0998 O.3       1 <0>        -0.1953
     14 C12        -2.2459   -4.2412   -0.2056 C.ar      1 <0>        -0.1683
     15 C13        -3.3977   -5.0117   -0.2052 C.ar      1 <0>         0.1726
     16 C14        -4.6516   -4.4136   -0.0938 C.ar      1 <0>         0.0216
     17 C15        -4.7569   -3.0366    0.0176 C.ar      1 <0>         0.1982
     18 O3         -5.9773   -2.4500    0.1259 O.3       1 <0>        -0.4669
     19 O4         -5.7746   -5.1834   -0.0952 O.3       1 <0>        -0.4719
     20 O5         -3.3038   -6.3624   -0.3148 O.3       1 <0>        -0.4759
     21 O6         -2.4310    1.2811    0.2287 O.3       1 <0>        -0.4496
     22 O7          1.6483    2.6564    1.8803 O.3       1 <0>        -0.4837
     23 O8          3.5523    2.1120   -0.0304 O.3       1 <0>        -0.4862
     24 H1          0.7965   -1.0373   -1.7095 H         1 <0>         0.1384
     25 H2          2.9068    0.2222   -1.7187 H         1 <0>         0.1423
     26 H3         -0.5151    1.1991    1.7107 H         1 <0>         0.1430
     27 H4         -1.2797   -4.7158   -0.2926 H         1 <0>         0.1608
     28 H5         -6.3763   -2.2126   -0.7223 H         1 <0>         0.4062
     29 H6         -6.0534   -5.4740    0.7839 H         1 <0>         0.3923
     30 H7         -3.2307   -6.8217    0.5330 H         1 <0>         0.4025
     31 H8         -3.3116    1.6733    0.3048 H         1 <0>         0.4082
     32 H9          1.3507    3.5375    1.6156 H         1 <0>         0.3905
     33 H10         3.5265    2.9153   -0.5681 H         1 <0>         0.3927
@<TRIPOS>BOND
     1    1    6 ar
     2    1    2 ar
     3    1   24 1
     4    2    3 ar
     5    2   25 1
     6    3    4 ar
     7    3   23 1
     8    4    5 ar
     9    4   22 1
    10    5    6 ar
    11    5   26 1
    12    6    7 1
    13    7   13 1
    14    7    8 2
    15    8    9 1
    16    8   21 1
    17    9   10 2
    18    9   11 1
    19   11   17 ar
    20   11   12 ar
    21   12   13 1
    22   12   14 ar
    23   14   15 ar
    24   14   27 1
    25   15   16 ar
    26   15   20 1
    27   16   17 ar
    28   16   19 1
    29   17   18 1
    30   18   28 1
    31   19   29 1
    32   20   30 1
    33   21   31 1
    34   22   32 1
    35   23   33 1
@<TRIPOS>MOLECULE
CHEMBL63592
   50    51     0     0     0
SMALL
USER_CHARGES

@<TRIPOS>ATOM
      1 C1         -0.0166    1.3733    0.0096 C.ar      1 <0>        -0.0953
      2 C2          1.1861    2.0890    0.0020 C.ar      1 <0>        -0.0407
      3 C3          2.4053    1.4009   -0.0134 C.ar      1 <0>        -0.1124
      4 C4          2.4145    0.0204   -0.0209 C.ar      1 <0>         0.0755
      5 C5          1.2117   -0.6856   -0.0137 C.ar      1 <0>         0.0752
      6 C6          0.0021   -0.0041    0.0020 C.ar      1 <0>        -0.1272
      7 O1          1.2237   -2.0437   -0.0220 O.3       1 <0>        -0.4892
      8 O2          3.5969   -0.6514   -0.0358 O.3       1 <0>        -0.4887
      9 C7          1.1693    3.5585    0.0095 C.2       1 <0>        -0.0550
     10 C8         -0.0083    4.2205    0.0239 C.2       1 <0>        -0.1350
     11 C9         -0.0245    5.6381    0.0312 C.2       1 <0>         0.4899
     12 O3          1.0220    6.2584    0.0245 O.2       1 <0>        -0.5240
     13 O4         -1.2006    6.2993    0.0455 O.3       1 <0>        -0.3020
     14 C10        -1.1422    7.7271    0.0522 C.3       1 <0>         0.0440
     15 C11        -1.1083    8.2219    1.4752 C.2       1 <0>         0.5001
     16 O5         -0.9654    9.4109    1.7040 O.co2     1 <0>        -0.6932
     17 O6         -1.2239    7.4331    2.3977 O.co2     1 <0>        -0.6829
     18 C12        -2.3762    8.2914   -0.6548 C.3       1 <0>         0.0440
     19 O7         -3.5475    7.9575    0.0926 O.3       1 <0>        -0.3020
     20 C13        -4.5845    8.8181    0.0231 C.2       1 <0>         0.4899
     21 O8         -4.4952    9.8246   -0.6542 O.2       1 <0>        -0.5239
     22 C14        -5.7780    8.5492    0.7395 C.2       1 <0>        -0.1349
     23 C15        -6.8163    9.4108    0.6699 C.2       1 <0>        -0.0550
     24 C16        -8.0534    9.1321    1.4124 C.ar      1 <0>        -0.0406
     25 C17        -9.1327   10.0207    1.3372 C.ar      1 <0>        -0.1124
     26 C18       -10.2925    9.7532    2.0367 C.ar      1 <0>         0.0755
     27 C19       -10.3871    8.6006    2.8162 C.ar      1 <0>         0.0751
     28 C20        -9.3171    7.7189    2.8919 C.ar      1 <0>        -0.1271
     29 C21        -8.1583    7.9747    2.1923 C.ar      1 <0>        -0.0954
     30 O9        -11.5291    8.3400    3.5037 O.3       1 <0>        -0.4893
     31 O10       -11.3429   10.6141    1.9660 O.3       1 <0>        -0.4887
     32 C22        -2.4771    7.7005   -2.0374 C.2       1 <0>         0.5001
     33 O11        -3.4164    6.9782   -2.3246 O.co2     1 <0>        -0.6829
     34 O12        -1.6194    7.9448   -2.8688 O.co2     1 <0>        -0.6932
     35 H1         -0.9589    1.9007    0.0259 H         1 <0>         0.1431
     36 H2          3.3361    1.9486   -0.0197 H         1 <0>         0.1390
     37 H3         -0.9266   -0.5553    0.0079 H         1 <0>         0.1359
     38 H4          1.2356   -2.4423    0.8590 H         1 <0>         0.3828
     39 H5          3.9473   -0.8504    0.8433 H         1 <0>         0.3834
     40 H6          2.0983    4.1092    0.0036 H         1 <0>         0.1409
     41 H7         -0.9373    3.6698    0.0298 H         1 <0>         0.1394
     42 H8         -0.2429    8.0564   -0.4685 H         1 <0>         0.0962
     43 H9         -2.2889    9.3754   -0.7283 H         1 <0>         0.0963
     44 H10        -5.8573    7.6556    1.3408 H         1 <0>         0.1394
     45 H11        -6.7370   10.3044    0.0686 H         1 <0>         0.1409
     46 H12        -9.0581   10.9133    0.7338 H         1 <0>         0.1390
     47 H13        -9.3951    6.8281    3.4975 H         1 <0>         0.1359
     48 H14        -7.3294    7.2847    2.2492 H         1 <0>         0.1432
     49 H15       -12.1768    7.8206    3.0080 H         1 <0>         0.3828
     50 H16       -11.9636   10.4193    1.2505 H         1 <0>         0.3834
@<TRIPOS>BOND
     1    1    6 ar
     2    1    2 ar
     3    1   35 1
     4    2    3 ar
     5    2    9 1
     6    3    4 ar
     7    3   36 1
     8    4    5 ar
     9    4    8 1
    10    5    6 ar
    11    5    7 1
    12    6   37 1
    13    7   38 1
    14    8   39 1
    15    9   10 2
    16    9   40 1
    17   10   11 1
    18   10   41 1
    19   11   12 2
    20   11   13 1
    21   13   14 1
    22   14   15 1
    23   14   18 1
    24   14   42 1
    25   15   16 2
    26   15   17 1
    27   18   19 1
    28   18   32 1
    29   18   43 1
    30   19   20 1
    31   20   21 2
    32   20   22 1
    33   22   23 2
    34   22   44 1
    35   23   24 1
    36   23   45 1
    37   24   29 ar
    38   24   25 ar
    39   25   26 ar
    40   25   46 1
    41   26   27 ar
    42   26   31 1
    43   27   28 ar
    44   27   30 1
    45   28   29 ar
    46   28   47 1
    47   29   48 1
    48   30   49 1
    49   31   50 1
    50   32   33 2
    51   32   34 1
@<TRIPOS>MOLECULE
CHEMBL63592__1
   50    51     0     0     0
SMALL
USER_CHARGES

@<TRIPOS>ATOM
      1 C1         -0.0166    1.3733    0.0096 C.ar      1 <0>        -0.0952
      2 C2          1.1861    2.0890    0.0020 C.ar      1 <0>        -0.0398
      3 C3          2.4053    1.4009   -0.0134 C.ar      1 <0>        -0.1129
      4 C4          2.4145    0.0204   -0.0209 C.ar      1 <0>         0.0753
      5 C5          1.2117   -0.6856   -0.0137 C.ar      1 <0>         0.0747
      6 C6          0.0021   -0.0041    0.0020 C.ar      1 <0>        -0.1271
      7 O1          1.2237   -2.0437   -0.0220 O.3       1 <0>        -0.4892
      8 O2          3.5969   -0.6514   -0.0358 O.3       1 <0>        -0.4888
      9 C7          1.1693    3.5585    0.0095 C.2       1 <0>        -0.0572
     10 C8         -0.0083    4.2205    0.0239 C.2       1 <0>        -0.1301
     11 C9         -0.0245    5.6381    0.0312 C.2       1 <0>         0.4954
     12 O3          1.0220    6.2584    0.0245 O.2       1 <0>        -0.5272
     13 O4         -1.2006    6.2993    0.0455 O.3       1 <0>        -0.2907
     14 C10        -1.1422    7.7271    0.0522 C.3       1 <0>         0.0435
     15 C11        -1.1083    8.2219    1.4752 C.2       1 <0>         0.4950
     16 O5         -0.9654    9.4109    1.7040 O.co2     1 <0>        -0.6785
     17 O6         -1.2239    7.4331    2.3977 O.co2     1 <0>        -0.6913
     18 C12        -2.3762    8.2914   -0.6548 C.3       1 <0>         0.0435
     19 O7         -2.3177    9.7192   -0.6481 O.3       1 <0>        -0.2907
     20 C13        -3.4939   10.3803   -0.6338 C.2       1 <0>         0.4954
     21 O8         -4.5403    9.7601   -0.6271 O.2       1 <0>        -0.5271
     22 C14        -3.5101   11.7980   -0.6265 C.2       1 <0>        -0.1301
     23 C15        -4.6876   12.4600   -0.6121 C.2       1 <0>        -0.0573
     24 C16        -4.7044   13.9294   -0.6046 C.ar      1 <0>        -0.0397
     25 C17        -5.9236   14.6175   -0.5838 C.ar      1 <0>        -0.1129
     26 C18        -5.9328   15.9981   -0.5763 C.ar      1 <0>         0.0753
     27 C19        -4.7301   16.7041   -0.5899 C.ar      1 <0>         0.0746
     28 C20        -3.5205   16.0226   -0.6109 C.ar      1 <0>        -0.1271
     29 C21        -3.5017   14.6451   -0.6122 C.ar      1 <0>        -0.0953
     30 O9         -4.7420   18.0622   -0.5829 O.3       1 <0>        -0.4896
     31 O10        -7.1151   16.6698   -0.5562 O.3       1 <0>        -0.4889
     32 C22        -2.4100    7.7966   -2.0778 C.2       1 <0>         0.4944
     33 O11        -2.5529    6.6076   -2.3066 O.co2     1 <0>        -0.6782
     34 O12        -2.2945    8.5854   -3.0003 O.co2     1 <0>        -0.6906
     35 H1         -0.9589    1.9007    0.0259 H         1 <0>         0.1436
     36 H2          3.3361    1.9486   -0.0197 H         1 <0>         0.1388
     37 H3         -0.9266   -0.5553    0.0079 H         1 <0>         0.1358
     38 H4          1.2356   -2.4423    0.8590 H         1 <0>         0.3826
     39 H5          3.9473   -0.8504    0.8433 H         1 <0>         0.3832
     40 H6          2.0983    4.1092    0.0036 H         1 <0>         0.1404
     41 H7         -0.9373    3.6698    0.0298 H         1 <0>         0.1403
     42 H8         -0.2429    8.0564   -0.4685 H         1 <0>         0.0794
     43 H9         -3.2754    7.9621   -0.1341 H         1 <0>         0.0793
     44 H10        -2.5810   12.3487   -0.6324 H         1 <0>         0.1403
     45 H11        -5.6167   11.9093   -0.6062 H         1 <0>         0.1404
     46 H12        -6.8543   14.0698   -0.5741 H         1 <0>         0.1387
     47 H13        -2.5919   16.5739   -0.6220 H         1 <0>         0.1358
     48 H14        -2.5593   14.1177   -0.6237 H         1 <0>         0.1436
     49 H15        -4.7330   18.4510    0.3024 H         1 <0>         0.3829
     50 H16        -7.4447   16.8594    0.3329 H         1 <0>         0.3833
@<TRIPOS>BOND
     1    1    6 ar
     2    1    2 ar
     3    1   35 1
     4    2    3 ar
     5    2    9 1
     6    3    4 ar
     7    3   36 1
     8    4    5 ar
     9    4    8 1
    10    5    6 ar
    11    5    7 1
    12    6   37 1
    13    7   38 1
    14    8   39 1
    15    9   10 2
    16    9   40 1
    17   10   11 1
    18   10   41 1
    19   11   12 2
    20   11   13 1
    21   13   14 1
    22   14   15 1
    23   14   18 1
    24   14   42 1
    25   15   16 2
    26   15   17 1
    27   18   19 1
    28   18   32 1
    29   18   43 1
    30   19   20 1
    31   20   21 2
    32   20   22 1
    33   22   23 2
    34   22   44 1
    35   23   24 1
    36   23   45 1
    37   24   29 ar
    38   24   25 ar
    39   25   26 ar
    40   25   46 1
    41   26   27 ar
    42   26   31 1
    43   27   28 ar
    44   27   30 1
    45   28   29 ar
    46   28   47 1
    47   29   48 1
    48   30   49 1
    49   31   50 1
    50   32   33 2
    51   32   34 1
@<TRIPOS>MOLECULE
CHEMBL63592__2
   50    51     0     0     0
SMALL
USER_CHARGES

@<TRIPOS>ATOM
      1 C1         -0.0166    1.3733    0.0096 C.ar      1 <0>        -0.0952
      2 C2          1.1861    2.0890    0.0020 C.ar      1 <0>        -0.0408
      3 C3          2.4053    1.4009   -0.0134 C.ar      1 <0>        -0.1124
      4 C4          2.4145    0.0204   -0.0209 C.ar      1 <0>         0.0754
      5 C5          1.2117   -0.6856   -0.0137 C.ar      1 <0>         0.0753
      6 C6          0.0021   -0.0041    0.0020 C.ar      1 <0>        -0.1271
      7 O1          1.2237   -2.0437   -0.0220 O.3       1 <0>        -0.4894
      8 O2          3.5969   -0.6514   -0.0358 O.3       1 <0>        -0.4889
      9 C7          1.1693    3.5585    0.0095 C.2       1 <0>        -0.0548
     10 C8         -0.0083    4.2205    0.0239 C.2       1 <0>        -0.1351
     11 C9         -0.0245    5.6381    0.0312 C.2       1 <0>         0.4900
     12 O3          1.0220    6.2584    0.0245 O.2       1 <0>        -0.5241
     13 O4         -1.2006    6.2993    0.0455 O.3       1 <0>        -0.3019
     14 C10        -1.1422    7.7271    0.0522 C.3       1 <0>         0.0440
     15 C11        -1.1349    8.2362   -1.3662 C.2       1 <0>         0.5001
     16 O5         -1.2678    7.4568   -2.2943 O.co2     1 <0>        -0.6825
     17 O6         -0.9962    9.4274   -1.5857 O.co2     1 <0>        -0.6936
     18 C12        -2.3627    8.2841    0.7877 C.3       1 <0>         0.0440
     19 O7         -3.5478    7.9577    0.0590 O.3       1 <0>        -0.3020
     20 C13        -4.5832    8.8174    0.1566 C.2       1 <0>         0.4900
     21 O8         -4.4812    9.8170    0.8422 O.2       1 <0>        -0.5240
     22 C14        -5.7900    8.5556   -0.5400 C.2       1 <0>        -0.1351
     23 C15        -6.8267    9.4164   -0.4423 C.2       1 <0>        -0.0549
     24 C16        -8.0775    9.1451   -1.1644 C.ar      1 <0>        -0.0407
     25 C17        -9.1511   10.0387   -1.0692 C.ar      1 <0>        -0.1124
     26 C18       -10.3235    9.7786   -1.7503 C.ar      1 <0>         0.0754
     27 C19       -10.4368    8.6280   -2.5303 C.ar      1 <0>         0.0753
     28 C20        -9.3728    7.7409   -2.6250 C.ar      1 <0>        -0.1271
     29 C21        -8.1971    7.9956   -1.9538 C.ar      1 <0>        -0.0953
     30 O9        -11.5914    8.3743   -3.1990 O.3       1 <0>        -0.4895
     31 O10       -11.3684   10.6444   -1.6603 O.3       1 <0>        -0.4888
     32 C22        -2.4378    7.6793    2.1660 C.2       1 <0>         0.5001
     33 O11        -1.5647    7.9153    2.9836 O.co2     1 <0>        -0.6937
     34 O12        -3.3716    6.9541    2.4634 O.co2     1 <0>        -0.6824
     35 H1         -0.9589    1.9007    0.0259 H         1 <0>         0.1432
     36 H2          3.3361    1.9486   -0.0197 H         1 <0>         0.1389
     37 H3         -0.9266   -0.5553    0.0079 H         1 <0>         0.1360
     38 H4          1.2356   -2.4423    0.8590 H         1 <0>         0.3831
     39 H5          3.9473   -0.8504    0.8433 H         1 <0>         0.3835
     40 H6          2.0983    4.1092    0.0036 H         1 <0>         0.1408
     41 H7         -0.9373    3.6698    0.0298 H         1 <0>         0.1394
     42 H8         -0.2333    8.0512    0.5591 H         1 <0>         0.0962
     43 H9         -2.2739    9.3673    0.8705 H         1 <0>         0.0962
     44 H10        -5.8806    7.6681   -1.1487 H         1 <0>         0.1395
     45 H11        -6.7361   10.3039    0.1664 H         1 <0>         0.1408
     46 H12        -9.0625   10.9291   -0.4644 H         1 <0>         0.1389
     47 H13        -9.4658    6.8509   -3.2297 H         1 <0>         0.1360
     48 H14        -7.3695    7.3063   -2.0331 H         1 <0>         0.1432
     49 H15       -11.6184    8.7445   -4.0919 H         1 <0>         0.3831
     50 H16       -11.3630   11.3387   -2.3333 H         1 <0>         0.3835
@<TRIPOS>BOND
     1    1    6 ar
     2    1    2 ar
     3    1   35 1
     4    2    3 ar
     5    2    9 1
     6    3    4 ar
     7    3   36 1
     8    4    5 ar
     9    4    8 1
    10    5    6 ar
    11    5    7 1
    12    6   37 1
    13    7   38 1
    14    8   39 1
    15    9   10 2
    16    9   40 1
    17   10   11 1
    18   10   41 1
    19   11   12 2
    20   11   13 1
    21   13   14 1
    22   14   15 1
    23   14   18 1
    24   14   42 1
    25   15   16 2
    26   15   17 1
    27   18   19 1
    28   18   32 1
    29   18   43 1
    30   19   20 1
    31   20   21 2
    32   20   22 1
    33   22   23 2
    34   22   44 1
    35   23   24 1
    36   23   45 1
    37   24   29 ar
    38   24   25 ar
    39   25   26 ar
    40   25   46 1
    41   26   27 ar
    42   26   31 1
    43   27   28 ar
    44   27   30 1
    45   28   29 ar
    46   28   47 1
    47   29   48 1
    48   30   49 1
    49   31   50 1
    50   32   33 2
    51   32   34 1
@<TRIPOS>MOLECULE
CHEMBL59548
   36    38     0     0     0
SMALL
USER_CHARGES

@<TRIPOS>ATOM
      1 C1         -0.0170    1.4058    0.0098 C.ar      1 <0>        -0.1361
      2 C2          1.1721    2.0700    0.0020 C.ar      1 <0>        -0.1446
      3 C3          2.3783    1.3443   -0.0134 C.ar      1 <0>         0.0520
      4 N1          2.3849    0.0219   -0.0206 N.ar      1 <0>        -0.3896
      5 C4          1.2482   -0.6764   -0.0135 C.ar      1 <0>         0.0232
      6 C5          0.0021   -0.0041    0.0020 C.ar      1 <0>        -0.0236
      7 C6         -1.1952   -0.7426    0.0090 C.ar      1 <0>        -0.3114
      8 C7         -1.1621   -2.0986    0.0014 C.ar      1 <0>         0.0069
      9 C8          0.0646   -2.7904   -0.0140 C.ar      1 <0>        -0.3286
     10 C9          1.2691   -2.0896   -0.0213 C.ar      1 <0>         0.3279
     11 O1          2.4479   -2.7559   -0.0365 O.3       1 <0>        -0.6045
     12 C10         0.0744   -4.2608   -0.0215 C.2       1 <0>         0.5352
     13 O2         -0.9811   -4.8797   -0.0143 O.co2     1 <0>        -0.7467
     14 O3          1.1381   -4.8654   -0.0348 O.co2     1 <0>        -0.6787
     15 C11         3.6575    2.0719   -0.0222 C.2       1 <0>        -0.0939
     16 C12         4.8172    1.3923   -0.0369 C.2       1 <0>        -0.1011
     17 C13         6.0975    2.1205   -0.0457 C.ar      1 <0>        -0.0690
     18 C14         6.1068    3.5214   -0.0330 C.ar      1 <0>        -0.1109
     19 C15         7.3002    4.2074   -0.0412 C.ar      1 <0>        -0.1696
     20 C16         8.5050    3.5165   -0.0626 C.ar      1 <0>         0.1217
     21 C17         8.5091    2.1121   -0.0755 C.ar      1 <0>        -0.1643
     22 C18         7.2996    1.4162   -0.0610 C.ar      1 <0>        -0.0560
     23 C19         9.7843    1.3771   -0.0987 C.2       1 <0>         0.5223
     24 O4          9.7851    0.1538   -0.1100 O.co2     1 <0>        -0.6877
     25 O5         10.8433    1.9895   -0.1068 O.co2     1 <0>        -0.6844
     26 O6          9.6768    4.1976   -0.0715 O.3       1 <0>        -0.4776
     27 H1         -0.9521    1.9460    0.0260 H         1 <0>         0.1091
     28 H2          1.1895    3.1498    0.0072 H         1 <0>         0.1064
     29 H3         -2.1445   -0.2278    0.0208 H         1 <0>         0.0862
     30 H4         -2.0879   -2.6547    0.0076 H         1 <0>         0.0971
     31 H5          3.6645    3.1518   -0.0169 H         1 <0>         0.1112
     32 H6          4.8101    0.3123   -0.0423 H         1 <0>         0.1358
     33 H7          5.1739    4.0654   -0.0170 H         1 <0>         0.1190
     34 H8          7.2998    5.2874   -0.0313 H         1 <0>         0.1139
     35 H9          7.2952    0.3362   -0.0663 H         1 <0>         0.1347
     36 H10        10.0280    4.3875    0.8092 H         1 <0>         0.3754
@<TRIPOS>BOND
     1    1    6 ar
     2    1    2 ar
     3    1   27 1
     4    2    3 ar
     5    2   28 1
     6    3    4 ar
     7    3   15 1
     8    4    5 ar
     9    5   10 ar
    10    5    6 ar
    11    6    7 ar
    12    7    8 ar
    13    7   29 1
    14    8    9 ar
    15    8   30 1
    16    9   10 ar
    17    9   12 1
    18   10   11 1
    19   12   13 2
    20   12   14 1
    21   15   16 2
    22   15   31 1
    23   16   17 1
    24   16   32 1
    25   17   22 ar
    26   17   18 ar
    27   18   19 ar
    28   18   33 1
    29   19   20 ar
    30   19   34 1
    31   20   21 ar
    32   20   26 1
    33   21   22 ar
    34   21   23 1
    35   22   35 1
    36   23   24 2
    37   23   25 1
    38   26   36 1
@<TRIPOS>MOLECULE
CHEMBL59548__1
   37    39     0     0     0
SMALL
USER_CHARGES

@<TRIPOS>ATOM
      1 C1         -0.0170    1.4058    0.0098 C.ar      1 <0>        -0.0684
      2 C2          1.1721    2.0700    0.0020 C.ar      1 <0>        -0.1658
      3 C3          2.3783    1.3443   -0.0134 C.ar      1 <0>         0.1760
      4 N1          2.3849    0.0219   -0.0206 N.ar      1 <0>        -0.4529
      5 C4          1.2482   -0.6764   -0.0135 C.ar      1 <0>         0.1002
      6 C5          0.0021   -0.0041    0.0020 C.ar      1 <0>        -0.0928
      7 C6         -1.1952   -0.7426    0.0090 C.ar      1 <0>        -0.1434
      8 C7         -1.1621   -2.0986    0.0014 C.ar      1 <0>        -0.0558
      9 C8          0.0646   -2.7904   -0.0140 C.ar      1 <0>        -0.1564
     10 C9          1.2691   -2.0896   -0.0213 C.ar      1 <0>         0.1651
     11 O1          2.4479   -2.7559   -0.0365 O.3       1 <0>        -0.4525
     12 C10         0.0744   -4.2608   -0.0215 C.2       1 <0>         0.5214
     13 O2         -0.9811   -4.8797   -0.0143 O.co2     1 <0>        -0.6942
     14 O3          1.1381   -4.8654   -0.0348 O.co2     1 <0>        -0.6639
     15 C11         3.6575    2.0719   -0.0222 C.2       1 <0>        -0.1511
     16 C12         4.8172    1.3923   -0.0369 C.2       1 <0>        -0.0340
     17 C13         6.0975    2.1205   -0.0457 C.ar      1 <0>        -0.1020
     18 C14         6.1068    3.5214   -0.0330 C.ar      1 <0>        -0.0964
     19 C15         7.3002    4.2074   -0.0412 C.ar      1 <0>        -0.1723
     20 C16         8.5050    3.5165   -0.0626 C.ar      1 <0>         0.1435
     21 C17         8.5091    2.1121   -0.0755 C.ar      1 <0>        -0.1670
     22 C18         7.2996    1.4162   -0.0610 C.ar      1 <0>        -0.0437
     23 C19         9.7843    1.3771   -0.0987 C.2       1 <0>         0.5207
     24 O4          9.7851    0.1538   -0.1100 O.co2     1 <0>        -0.6877
     25 O5         10.8433    1.9895   -0.1068 O.co2     1 <0>        -0.6762
     26 O6          9.6768    4.1976   -0.0715 O.3       1 <0>        -0.4758
     27 H1         -0.9521    1.9460    0.0260 H         1 <0>         0.1327
     28 H2          1.1895    3.1498    0.0072 H         1 <0>         0.1307
     29 H3         -2.1445   -0.2278    0.0208 H         1 <0>         0.1218
     30 H4         -2.0879   -2.6547    0.0076 H         1 <0>         0.1331
     31 H5          2.7990   -2.9542    0.8425 H         1 <0>         0.3860
     32 H6          3.6645    3.1518   -0.0169 H         1 <0>         0.1263
     33 H7          4.8101    0.3123   -0.0423 H         1 <0>         0.1356
     34 H8          5.1739    4.0654   -0.0170 H         1 <0>         0.1211
     35 H9          7.2998    5.2874   -0.0313 H         1 <0>         0.1199
     36 H10         7.2952    0.3362   -0.0663 H         1 <0>         0.1356
     37 H11        10.0280    4.3875    0.8092 H         1 <0>         0.3824
@<TRIPOS>BOND
     1    1    6 ar
     2    1    2 ar
     3    1   27 1
     4    2    3 ar
     5    2   28 1
     6    3    4 ar
     7    3   15 1
     8    4    5 ar
     9    5   10 ar
    10    5    6 ar
    11    6    7 ar
    12    7    8 ar
    13    7   29 1
    14    8    9 ar
    15    8   30 1
    16    9   10 ar
    17    9   12 1
    18   10   11 1
    19   11   31 1
    20   12   13 2
    21   12   14 1
    22   15   16 2
    23   15   32 1
    24   16   17 1
    25   16   33 1
    26   17   22 ar
    27   17   18 ar
    28   18   19 ar
    29   18   34 1
    30   19   20 ar
    31   19   35 1
    32   20   21 ar
    33   20   26 1
    34   21   22 ar
    35   21   23 1
    36   22   36 1
    37   23   24 2
    38   23   25 1
    39   26   37 1
@<TRIPOS>MOLECULE
CHEMBL198001
   38    40     0     0     0
SMALL
USER_CHARGES

@<TRIPOS>ATOM
      1 C1         -0.0166    1.3738    0.0096 C.ar      1 <0>        -0.1413
      2 C2          1.1719    2.0893    0.0021 C.ar      1 <0>        -0.1048
      3 C3          2.3847    1.4358   -0.0135 C.ar      1 <0>        -0.1260
      4 C4          2.4243    0.0450   -0.0213 C.ar      1 <0>         0.0832
      5 C5          1.2206   -0.6766   -0.0133 C.ar      1 <0>        -0.0594
      6 C6          0.0021   -0.0041    0.0020 C.ar      1 <0>        -0.0647
      7 C7          1.6051   -2.1018   -0.0248 C.2       1 <0>        -0.2542
      8 C8          2.9834   -2.1277   -0.0386 C.2       1 <0>         0.1275
      9 N1          3.4594   -0.8679   -0.0365 N.pl3     1 <0>        -0.4601
     10 C9          4.8811   -0.5148   -0.0495 C.3       1 <0>         0.1467
     11 C10         5.3534   -0.2804    1.3622 C.ar      1 <0>        -0.1295
     12 C11         5.2760    0.9841    1.9155 C.ar      1 <0>        -0.0679
     13 C12         5.7084    1.2001    3.2102 C.ar      1 <0>        -0.1551
     14 C13         6.2193    0.1494    3.9533 C.ar      1 <0>         0.1082
     15 C14         6.2964   -1.1167    3.3981 C.ar      1 <0>        -0.1528
     16 C15         5.8585   -1.3314    2.1050 C.ar      1 <0>        -0.0674
     17 F1          6.6427    0.3594    5.2189 F         1 <0>        -0.1377
     18 C16         0.7327   -3.2188   -0.0217 C.2       1 <0>         0.4096
     19 C17         1.2975   -4.6159   -0.0349 C.3       1 <0>        -0.2114
     20 C18         0.1685   -5.6141   -0.0285 C.2       1 <0>         0.2898
     21 O1         -0.9766   -5.2306   -0.0147 O.2       1 <0>        -0.4195
     22 C19         0.4657   -7.0777   -0.0393 C.2       1 <0>         0.4687
     23 O2         -0.4486   -7.8862   -0.0342 O.co2     1 <0>        -0.6540
     24 O3          1.6229   -7.4653   -0.0533 O.co2     1 <0>        -0.6719
     25 O4         -0.4694   -3.0501   -0.0084 O.2       1 <0>        -0.4336
     26 H1         -0.9603    1.8987    0.0259 H         1 <0>         0.1234
     27 H2          1.1462    3.1689    0.0082 H         1 <0>         0.1237
     28 H3          3.3040    2.0027   -0.0199 H         1 <0>         0.1158
     29 H4         -0.9242   -0.5594    0.0075 H         1 <0>         0.1332
     30 H5          3.5890   -3.0218   -0.0494 H         1 <0>         0.1855
     31 H6          5.4537   -1.3290   -0.4938 H         1 <0>         0.1081
     32 H7          5.0248    0.3927   -0.6360 H         1 <0>         0.1005
     33 H8          4.8778    1.8036    1.3356 H         1 <0>         0.1326
     34 H9          5.6482    2.1881    3.6421 H         1 <0>         0.1375
     35 H10         6.6950   -1.9369    3.9766 H         1 <0>         0.1401
     36 H11         5.9143   -2.3197    1.6732 H         1 <0>         0.1379
     37 H12         1.9008   -4.7555   -0.9319 H         1 <0>         0.1200
     38 H13         1.9191   -4.7649    0.8480 H         1 <0>         0.1194
@<TRIPOS>BOND
     1    1    6 ar
     2    1    2 ar
     3    1   26 1
     4    2    3 ar
     5    2   27 1
     6    3    4 ar
     7    3   28 1
     8    4    9 1
     9    4    5 ar
    10    5    6 ar
    11    5    7 1
    12    6   29 1
    13    7    8 2
    14    7   18 1
    15    8    9 1
    16    8   30 1
    17    9   10 1
    18   10   11 1
    19   10   31 1
    20   10   32 1
    21   11   16 ar
    22   11   12 ar
    23   12   13 ar
    24   12   33 1
    25   13   14 ar
    26   13   34 1
    27   14   15 ar
    28   14   17 1
    29   15   16 ar
    30   15   35 1
    31   16   36 1
    32   18   19 1
    33   18   25 2
    34   19   20 1
    35   19   37 1
    36   19   38 1
    37   20   21 2
    38   20   22 1
    39   22   23 2
    40   22   24 1
@<TRIPOS>MOLECULE
CHEMBL210234
   58    61     0     0     0
SMALL
USER_CHARGES

@<TRIPOS>ATOM
      1 C1          1.3083    0.4121   -0.5772 C.3       1 <0>         0.0739
      2 N1          0.0210   -0.0929   -0.0934 N.am      1 <0>        -0.5529
      3 C2         -0.0185   -0.9995    0.9581 C.ar      1 <0>         0.3881
      4 C3         -0.2053   -0.5360    2.2817 C.ar      1 <0>        -0.1148
      5 C4         -0.3549    0.8276    2.5752 C.ar      1 <0>        -0.0369
      6 C5         -0.5316    1.1893    3.8830 C.ar      1 <0>        -0.1543
      7 C6         -0.5586    0.2143    4.8765 C.ar      1 <0>         0.1513
      8 N2         -0.4180   -1.0602    4.5952 N.ar      1 <0>        -0.4514
      9 C7         -0.2429   -1.4742    3.3413 C.ar      1 <0>         0.1255
     10 C8         -0.0899   -2.8448    3.0224 C.ar      1 <0>         0.1836
     11 C9          0.0890   -3.2027    1.6920 C.ar      1 <0>         0.0385
     12 N3          0.1124   -2.2851    0.7193 N.ar      1 <0>        -0.4430
     13 C10         0.2499   -4.6276    1.3437 C.2       1 <0>         0.5768
     14 O1          0.2251   -5.4735    2.2168 O.2       1 <0>        -0.5098
     15 N4          0.4243   -4.9914    0.0577 N.am      1 <0>        -0.7100
     16 C11         0.5840   -6.4060   -0.2881 C.3       1 <0>         0.1620
     17 C12         0.7617   -6.5418   -1.7785 C.ar      1 <0>        -0.1221
     18 C13        -0.3432   -6.6999   -2.5942 C.ar      1 <0>        -0.0687
     19 C14        -0.1815   -6.8241   -3.9610 C.ar      1 <0>        -0.1551
     20 C15         1.0877   -6.7901   -4.5134 C.ar      1 <0>         0.1086
     21 C16         2.1935   -6.6317   -3.6954 C.ar      1 <0>        -0.1552
     22 C17         2.0290   -6.5025   -2.3294 C.ar      1 <0>        -0.0685
     23 F1          1.2470   -6.9119   -5.8495 F         1 <0>        -0.1369
     24 O2         -0.1170   -3.7886    3.9952 O.3       1 <0>        -0.4479
     25 C18        -1.1250    0.3224   -0.6685 C.2       1 <0>         0.5274
     26 O3         -2.1941   -0.0233   -0.2099 O.2       1 <0>        -0.4862
     27 C19        -1.0792    1.2079   -1.8702 C.2       1 <0>         0.5245
     28 O4         -0.9786    2.4097   -1.7349 O.2       1 <0>        -0.5054
     29 N5         -1.1495    0.6723   -3.1050 N.am      1 <0>        -0.5907
     30 C20        -1.3903   -0.7659   -3.2846 C.3       1 <0>         0.1023
     31 C21        -2.5908   -0.9521   -4.2179 C.3       1 <0>        -0.1352
     32 C22        -2.3420   -0.1890   -5.5209 C.3       1 <0>        -0.1217
     33 C23        -2.1918    1.3038   -5.2191 C.3       1 <0>        -0.1374
     34 C24        -0.9929    1.5166   -4.2972 C.3       1 <0>         0.1094
     35 H1          2.1087    0.0370    0.0606 H         1 <0>         0.0905
     36 H2          1.4701    0.0731   -1.6005 H         1 <0>         0.0756
     37 H3          1.3039    1.5018   -0.5518 H         1 <0>         0.0838
     38 H4         -0.3311    1.5704    1.7916 H         1 <0>         0.1456
     39 H5         -0.6497    2.2305    4.1444 H         1 <0>         0.1518
     40 H6         -0.6985    0.5141    5.9046 H         1 <0>         0.1742
     41 H7          0.4441   -4.3166   -0.6388 H         1 <0>         0.4108
     42 H8          1.4605   -6.8077    0.2203 H         1 <0>         0.0828
     43 H9         -0.3021   -6.9587    0.0240 H         1 <0>         0.0825
     44 H10        -1.3330   -6.7268   -2.1631 H         1 <0>         0.1356
     45 H11        -1.0448   -6.9480   -4.5981 H         1 <0>         0.1385
     46 H12         3.1840   -6.6054   -4.1252 H         1 <0>         0.1385
     47 H13         2.8911   -6.3744   -1.6916 H         1 <0>         0.1357
     48 H14        -0.9996   -4.1375    4.1802 H         1 <0>         0.4051
     49 H15        -0.5090   -1.2317   -3.7255 H         1 <0>         0.0808
     50 H16        -1.6038   -1.2240   -2.3188 H         1 <0>         0.0829
     51 H17        -2.7209   -2.0121   -4.4362 H         1 <0>         0.0811
     52 H18        -3.4893   -0.5664   -3.7363 H         1 <0>         0.0707
     53 H19        -1.4298   -0.5583   -5.9895 H         1 <0>         0.0675
     54 H20        -3.1839   -0.3399   -6.1966 H         1 <0>         0.0705
     55 H21        -2.0379    1.8495   -6.1500 H         1 <0>         0.0819
     56 H22        -3.0941    1.6683   -4.7280 H         1 <0>         0.0693
     57 H23        -0.9442    2.5640   -3.9994 H         1 <0>         0.0979
     58 H24        -0.0784    1.2411   -4.8225 H         1 <0>         0.0781
@<TRIPOS>BOND
     1    1    2 1
     2    1   35 1
     3    1   36 1
     4    1   37 1
     5    2    3 1
     6    2   25 am
     7    3   12 ar
     8    3    4 ar
     9    4    9 ar
    10    4    5 ar
    11    5    6 ar
    12    5   38 1
    13    6    7 ar
    14    6   39 1
    15    7    8 ar
    16    7   40 1
    17    8    9 ar
    18    9   10 ar
    19   10   11 ar
    20   10   24 1
    21   11   12 ar
    22   11   13 1
    23   13   14 2
    24   13   15 am
    25   15   16 1
    26   15   41 1
    27   16   17 1
    28   16   42 1
    29   16   43 1
    30   17   22 ar
    31   17   18 ar
    32   18   19 ar
    33   18   44 1
    34   19   20 ar
    35   19   45 1
    36   20   21 ar
    37   20   23 1
    38   21   22 ar
    39   21   46 1
    40   22   47 1
    41   24   48 1
    42   25   26 2
    43   25   27 1
    44   27   28 2
    45   27   29 am
    46   29   34 1
    47   29   30 1
    48   30   31 1
    49   30   49 1
    50   30   50 1
    51   31   32 1
    52   31   51 1
    53   31   52 1
    54   32   33 1
    55   32   53 1
    56   32   54 1
    57   33   34 1
    58   33   55 1
    59   33   56 1
    60   34   57 1
    61   34   58 1
@<TRIPOS>MOLECULE
CHEMBL379658
   52    55     0     0     0
SMALL
USER_CHARGES

@<TRIPOS>ATOM
      1 C1          0.9742    0.8494    0.7567 C.3       1 <0>        -0.1700
      2 C2         -0.1177    0.6286   -0.2921 C.3       1 <0>         0.1049
      3 N1          0.4830    0.0969   -1.5179 N.am      1 <0>        -0.6009
      4 C3          0.9600    1.0136   -2.5539 C.3       1 <0>         0.0943
      5 C4          2.2426    0.4834   -3.1885 C.3       1 <0>         0.0971
      6 N2          2.0654   -0.9025   -3.6230 N.am      1 <0>        -0.5563
      7 C5          1.3315   -1.7564   -2.8817 C.2       1 <0>         0.5216
      8 O1          1.2697   -2.9317   -3.1779 O.2       1 <0>        -0.4615
      9 C6          0.5999   -1.2354   -1.6862 C.2       1 <0>         0.5186
     10 O2          0.1145   -2.0022   -0.8804 O.2       1 <0>        -0.4761
     11 C7          2.6544   -1.3393   -4.8026 C.ar      1 <0>         0.3842
     12 C8          3.9801   -1.8332   -4.7876 C.ar      1 <0>        -0.1147
     13 C9          4.7330   -1.8992   -3.6058 C.ar      1 <0>        -0.0399
     14 C10         6.0077   -2.3909   -3.6808 C.ar      1 <0>        -0.1536
     15 C11         6.5212   -2.8075   -4.9060 C.ar      1 <0>         0.1506
     16 N3          5.8115   -2.7432   -6.0084 N.ar      1 <0>        -0.4498
     17 C12         4.5647   -2.2741   -5.9992 C.ar      1 <0>         0.1255
     18 C13         3.7871   -2.1987   -7.1796 C.ar      1 <0>         0.1844
     19 C14         2.4940   -1.6982   -7.0939 C.ar      1 <0>         0.0398
     20 N4          1.9764   -1.2974   -5.9275 N.ar      1 <0>        -0.4402
     21 C15         1.6708   -1.6133   -8.3156 C.2       1 <0>         0.5762
     22 O3          2.1261   -1.9793   -9.3821 O.2       1 <0>        -0.5101
     23 N5          0.4144   -1.1302   -8.2495 N.am      1 <0>        -0.7095
     24 C16        -0.4028   -1.0459   -9.4624 C.3       1 <0>         0.1623
     25 C17        -1.7549   -0.4760   -9.1186 C.ar      1 <0>        -0.1228
     26 C18        -2.7873   -1.3196   -8.7531 C.ar      1 <0>        -0.0683
     27 C19        -4.0276   -0.7982   -8.4371 C.ar      1 <0>        -0.1550
     28 C20        -4.2359    0.5698   -8.4867 C.ar      1 <0>         0.1087
     29 C21        -3.2011    1.4137   -8.8529 C.ar      1 <0>        -0.1556
     30 C22        -1.9603    0.8904   -9.1634 C.ar      1 <0>        -0.0689
     31 F1         -5.4480    1.0806   -8.1785 F         1 <0>        -0.1368
     32 O4          4.2939   -2.6060   -8.3691 O.3       1 <0>        -0.4479
     33 H1          1.4657   -0.0988    0.9746 H         1 <0>         0.0595
     34 H2          1.7075    1.5592    0.3739 H         1 <0>         0.0591
     35 H3          0.5273    1.2450    1.6688 H         1 <0>         0.0734
     36 H4         -0.8510   -0.0812    0.0907 H         1 <0>         0.0916
     37 H5         -0.6092    1.5768   -0.5100 H         1 <0>         0.0874
     38 H6          0.1944    1.1170   -3.3228 H         1 <0>         0.0851
     39 H7          1.1557    1.9890   -2.1086 H         1 <0>         0.1136
     40 H8          2.4993    1.1002   -4.0497 H         1 <0>         0.1107
     41 H9          3.0511    0.5310   -2.4590 H         1 <0>         0.0878
     42 H10         4.3185   -1.5711   -2.6639 H         1 <0>         0.1440
     43 H11         6.6153   -2.4553   -2.7902 H         1 <0>         0.1516
     44 H12         7.5291   -3.1931   -4.9506 H         1 <0>         0.1742
     45 H13         0.0512   -0.8382   -7.3987 H         1 <0>         0.4111
     46 H14         0.0900   -0.3992  -10.1884 H         1 <0>         0.0832
     47 H15        -0.5258   -2.0420   -9.8876 H         1 <0>         0.0825
     48 H16        -2.6247   -2.3866   -8.7148 H         1 <0>         0.1358
     49 H17        -4.8341   -1.4574   -8.1520 H         1 <0>         0.1388
     50 H18        -3.3625    2.4809   -8.8922 H         1 <0>         0.1387
     51 H19        -1.1517    1.5488   -9.4447 H         1 <0>         0.1359
     52 H20         4.1355   -3.5396   -8.5652 H         1 <0>         0.4058
@<TRIPOS>BOND
     1    1    2 1
     2    1   33 1
     3    1   34 1
     4    1   35 1
     5    2    3 1
     6    2   36 1
     7    2   37 1
     8    3    9 am
     9    3    4 1
    10    4    5 1
    11    4   38 1
    12    4   39 1
    13    5    6 1
    14    5   40 1
    15    5   41 1
    16    6    7 am
    17    6   11 1
    18    7    8 2
    19    7    9 1
    20    9   10 2
    21   11   20 ar
    22   11   12 ar
    23   12   17 ar
    24   12   13 ar
    25   13   14 ar
    26   13   42 1
    27   14   15 ar
    28   14   43 1
    29   15   16 ar
    30   15   44 1
    31   16   17 ar
    32   17   18 ar
    33   18   19 ar
    34   18   32 1
    35   19   20 ar
    36   19   21 1
    37   21   22 2
    38   21   23 am
    39   23   24 1
    40   23   45 1
    41   24   25 1
    42   24   46 1
    43   24   47 1
    44   25   30 ar
    45   25   26 ar
    46   26   27 ar
    47   26   48 1
    48   27   28 ar
    49   27   49 1
    50   28   29 ar
    51   28   31 1
    52   29   30 ar
    53   29   50 1
    54   30   51 1
    55   32   52 1
@<TRIPOS>MOLECULE
CHEMBL209958
   36    39     0     0     0
SMALL
USER_CHARGES

@<TRIPOS>ATOM
      1 C1         -0.0168    1.3868    0.0097 C.ar      1 <0>        -0.1580
      2 C2          1.1614    2.0825    0.0022 C.ar      1 <0>        -0.0415
      3 C3          2.3645    1.3554   -0.0133 C.ar      1 <0>        -0.1092
      4 C4          2.3112   -0.0566   -0.0203 C.ar      1 <0>         0.1337
      5 C5          3.5114   -0.8153   -0.0363 C.ar      1 <0>         0.2324
      6 C6          4.7290   -0.1682   -0.0446 C.ar      1 <0>        -0.1695
      7 C7          4.7812    1.3006   -0.0369 C.ar      1 <0>        -0.1821
      8 C8          3.6095    2.0311   -0.0221 C.ar      1 <0>         0.2263
      9 O1          3.6504    3.3847   -0.0156 O.3       1 <0>        -0.4748
     10 C9          6.2120    1.6325   -0.0491 C.2       1 <0>         0.5862
     11 O2          6.6783    2.7555   -0.0473 O.2       1 <0>        -0.4551
     12 N1          6.9212    0.4907   -0.0625 N.am      1 <0>        -0.5684
     13 C10         6.1347   -0.5996   -0.0609 C.2       1 <0>         0.5864
     14 O3          6.5218   -1.7520   -0.0712 O.2       1 <0>        -0.4516
     15 C11         8.3852    0.4401   -0.0779 C.3       1 <0>         0.1521
     16 C12         8.9019    0.4152    1.3375 C.ar      1 <0>        -0.1354
     17 C13         9.1748    1.6008    1.9941 C.ar      1 <0>        -0.0653
     18 C14         9.6482    1.5792    3.2923 C.ar      1 <0>        -0.1576
     19 C15         9.8493    0.3696    3.9353 C.ar      1 <0>         0.1108
     20 C16         9.5758   -0.8172    3.2766 C.ar      1 <0>        -0.1568
     21 C17         9.0974   -0.7930    1.9803 C.ar      1 <0>        -0.0643
     22 F1         10.3126    0.3473    5.2042 F         1 <0>        -0.1365
     23 O4          3.4604   -2.1691   -0.0430 O.3       1 <0>        -0.4634
     24 N2          1.1287   -0.6762   -0.0123 N.ar      1 <0>        -0.4545
     25 C18         0.0021   -0.0041    0.0020 C.ar      1 <0>         0.1451
     26 H1         -0.9582    1.9158    0.0260 H         1 <0>         0.1515
     27 H2          1.1670    3.1624    0.0076 H         1 <0>         0.1552
     28 H3          3.6709    3.7733    0.8696 H         1 <0>         0.4075
     29 H4          8.7122   -0.4592   -0.5999 H         1 <0>         0.1102
     30 H5          8.7738    1.3197   -0.5911 H         1 <0>         0.1103
     31 H6          9.0181    2.5442    1.4923 H         1 <0>         0.1388
     32 H7          9.8616    2.5055    3.8049 H         1 <0>         0.1391
     33 H8          9.7326   -1.7613    3.7771 H         1 <0>         0.1395
     34 H9          8.8797   -1.7185    1.4679 H         1 <0>         0.1392
     35 H10         3.4368   -2.5574   -0.9282 H         1 <0>         0.4070
     36 H11        -0.9334   -0.5438    0.0081 H         1 <0>         0.1728
@<TRIPOS>BOND
     1    1   25 ar
     2    1    2 ar
     3    1   26 1
     4    2    3 ar
     5    2   27 1
     6    3    8 ar
     7    3    4 ar
     8    4    5 ar
     9    4   24 ar
    10    5    6 ar
    11    5   23 1
    12    6   13 1
    13    6    7 ar
    14    7    8 ar
    15    7   10 1
    16    8    9 1
    17    9   28 1
    18   10   11 2
    19   10   12 am
    20   12   13 am
    21   12   15 1
    22   13   14 2
    23   15   16 1
    24   15   29 1
    25   15   30 1
    26   16   21 ar
    27   16   17 ar
    28   17   18 ar
    29   17   31 1
    30   18   19 ar
    31   18   32 1
    32   19   20 ar
    33   19   22 1
    34   20   21 ar
    35   20   33 1
    36   21   34 1
    37   23   35 1
    38   24   25 ar
    39   25   36 1
@<TRIPOS>MOLECULE
CHEMBL209958__1
   35    38     0     0     0
SMALL
USER_CHARGES

@<TRIPOS>ATOM
      1 C1         -0.0168    1.3868    0.0097 C.ar      1 <0>        -0.1654
      2 C2          1.1614    2.0825    0.0022 C.ar      1 <0>        -0.0795
      3 C3          2.3645    1.3554   -0.0133 C.ar      1 <0>        -0.0694
      4 C4          2.3112   -0.0566   -0.0203 C.ar      1 <0>         0.1031
      5 C5          3.5114   -0.8153   -0.0363 C.ar      1 <0>         0.3612
      6 C6          4.7290   -0.1682   -0.0446 C.ar      1 <0>        -0.3706
      7 C7          4.7812    1.3006   -0.0369 C.ar      1 <0>        -0.1049
      8 C8          3.6095    2.0311   -0.0221 C.ar      1 <0>         0.0768
      9 O1          3.6504    3.3847   -0.0156 O.3       1 <0>        -0.4816
     10 C9          6.2120    1.6325   -0.0491 C.2       1 <0>         0.5861
     11 O2          6.6783    2.7555   -0.0473 O.2       1 <0>        -0.4938
     12 N1          6.9212    0.4907   -0.0625 N.am      1 <0>        -0.5775
     13 C10         6.1347   -0.5996   -0.0609 C.2       1 <0>         0.5902
     14 O3          6.5218   -1.7520   -0.0712 O.2       1 <0>        -0.4946
     15 C11         8.3852    0.4401   -0.0779 C.3       1 <0>         0.1516
     16 C12         8.9019    0.4152    1.3375 C.ar      1 <0>        -0.1196
     17 C13         9.1748    1.6008    1.9941 C.ar      1 <0>        -0.0681
     18 C14         9.6482    1.5792    3.2923 C.ar      1 <0>        -0.1596
     19 C15         9.8493    0.3696    3.9353 C.ar      1 <0>         0.0992
     20 C16         9.5758   -0.8172    3.2766 C.ar      1 <0>        -0.1572
     21 C17         9.0974   -0.7930    1.9803 C.ar      1 <0>        -0.0635
     22 F1         10.3126    0.3473    5.2042 F         1 <0>        -0.1428
     23 O4          3.4604   -2.1691   -0.0430 O.3       1 <0>        -0.6141
     24 N2          1.1287   -0.6762   -0.0123 N.ar      1 <0>        -0.4253
     25 C18         0.0021   -0.0041    0.0020 C.ar      1 <0>         0.0795
     26 H1         -0.9582    1.9158    0.0260 H         1 <0>         0.1302
     27 H2          1.1670    3.1624    0.0076 H         1 <0>         0.1363
     28 H3          3.6709    3.7733    0.8696 H         1 <0>         0.3735
     29 H4          8.7122   -0.4592   -0.5999 H         1 <0>         0.1013
     30 H5          8.7738    1.3197   -0.5911 H         1 <0>         0.0986
     31 H6          9.0181    2.5442    1.4923 H         1 <0>         0.1376
     32 H7          9.8616    2.5055    3.8049 H         1 <0>         0.1345
     33 H8          9.7326   -1.7613    3.7771 H         1 <0>         0.1358
     34 H9          8.8797   -1.7185    1.4679 H         1 <0>         0.1403
     35 H10        -0.9334   -0.5438    0.0081 H         1 <0>         0.1517
@<TRIPOS>BOND
     1    1   25 ar
     2    1    2 ar
     3    1   26 1
     4    2    3 ar
     5    2   27 1
     6    3    8 ar
     7    3    4 ar
     8    4    5 ar
     9    4   24 ar
    10    5    6 ar
    11    5   23 1
    12    6   13 1
    13    6    7 ar
    14    7    8 ar
    15    7   10 1
    16    8    9 1
    17    9   28 1
    18   10   11 2
    19   10   12 am
    20   12   13 am
    21   12   15 1
    22   13   14 2
    23   15   16 1
    24   15   29 1
    25   15   30 1
    26   16   21 ar
    27   16   17 ar
    28   17   18 ar
    29   17   31 1
    30   18   19 ar
    31   18   32 1
    32   19   20 ar
    33   19   22 1
    34   20   21 ar
    35   20   33 1
    36   21   34 1
    37   24   25 ar
    38   25   35 1
@<TRIPOS>MOLECULE
CHEMBL441250
   60    62     0     0     0
SMALL
USER_CHARGES

@<TRIPOS>ATOM
      1 C1          0.6267    2.2919    1.8422 C.ar      1 <0>        -0.0724
      2 C2          1.0674    2.8055    0.6171 C.ar      1 <0>        -0.0525
      3 C3          1.7858    1.9869   -0.2627 C.ar      1 <0>        -0.1106
      4 C4          2.0555    0.6777    0.0829 C.ar      1 <0>         0.0776
      5 C5          1.6124    0.1732    1.3053 C.ar      1 <0>         0.0873
      6 C6          0.9003    0.9844    2.1788 C.ar      1 <0>        -0.1233
      7 O1          1.8783   -1.1153    1.6424 O.3       1 <0>        -0.4856
      8 O2          2.7530   -0.1203   -0.7692 O.3       1 <0>        -0.4868
      9 C7          0.7766    4.1997    0.2551 C.2       1 <0>        -0.0116
     10 C8         -0.5008    4.6390    0.2311 C.2       1 <0>        -0.1835
     11 C9         -1.5704    3.7085    0.2257 C.2       1 <0>         0.4847
     12 O3         -1.3421    2.5200    0.1026 O.2       1 <0>        -0.4863
     13 O4         -2.8417    4.1412    0.3571 O.3       1 <0>        -0.3430
     14 C10        -3.8696    3.1486    0.3431 C.3       1 <0>         0.1084
     15 C11        -5.1518    3.7503   -0.2356 C.3       1 <0>         0.1194
     16 C12        -6.2523    2.6875   -0.2506 C.3       1 <0>         0.0702
     17 C13        -6.5147    2.2049    1.1773 C.3       1 <0>        -0.1078
     18 C14        -5.2326    1.6033    1.7561 C.3       1 <0>         0.0752
     19 C15        -4.1320    2.6660    1.7711 C.3       1 <0>        -0.1401
     20 O5         -4.8178    0.4994    0.9489 O.3       1 <0>        -0.5402
     21 C16        -5.4911    1.1279    3.1626 C.2       1 <0>         0.4799
     22 O6         -5.3346   -0.0472    3.4474 O.co2     1 <0>        -0.6817
     23 O7         -5.8566    1.9185    4.0157 O.co2     1 <0>        -0.6920
     24 O8         -5.8375    1.5837   -1.0578 O.3       1 <0>        -0.3033
     25 C17        -6.8063    0.8886   -1.6896 C.2       1 <0>         0.4908
     26 O9         -7.9715    1.2121   -1.5577 O.2       1 <0>        -0.5051
     27 C18        -6.4661   -0.2188   -2.5069 C.2       1 <0>        -0.1731
     28 C19        -7.4174   -0.8302   -3.2462 C.2       1 <0>        -0.0226
     29 C20        -8.7303   -0.1947   -3.4251 C.ar      1 <0>        -0.0560
     30 C21        -8.8137    1.1609   -3.7649 C.ar      1 <0>        -0.0653
     31 C22       -10.0501    1.7521   -3.9321 C.ar      1 <0>         0.0740
     32 C23       -11.2121    0.9997   -3.7620 C.ar      1 <0>         0.0861
     33 C24       -11.1304   -0.3447   -3.4245 C.ar      1 <0>        -0.1378
     34 C25        -9.9009   -0.9443   -3.2619 C.ar      1 <0>        -0.0901
     35 O10       -12.4271    1.5838   -3.9266 O.3       1 <0>        -0.4879
     36 O11       -10.1350    3.0686   -4.2622 O.3       1 <0>        -0.4854
     37 O12        -4.9066    4.2010   -1.5694 O.3       1 <0>        -0.5530
     38 H1          0.0761    2.9216    2.5253 H         1 <0>         0.1254
     39 H2          2.1277    2.3784   -1.2093 H         1 <0>         0.1317
     40 H3          0.5597    0.5891    3.1243 H         1 <0>         0.1356
     41 H4          2.7112   -1.2332    2.1193 H         1 <0>         0.3833
     42 H5          3.7105   -0.0954   -0.6365 H         1 <0>         0.3819
     43 H6          1.5840    4.8732    0.0083 H         1 <0>         0.1481
     44 H7         -0.7070    5.6990    0.2160 H         1 <0>         0.1470
     45 H8         -3.5532    2.3066   -0.2726 H         1 <0>         0.1054
     46 H9         -5.4681    4.5923    0.3800 H         1 <0>         0.0838
     47 H10        -7.1657    3.1162   -0.6629 H         1 <0>         0.0873
     48 H11        -6.8311    3.0469    1.7930 H         1 <0>         0.0951
     49 H12        -7.2988    1.4478    1.1667 H         1 <0>         0.0759
     50 H13        -3.2186    2.2374    2.1834 H         1 <0>         0.0700
     51 H14        -4.4484    3.5080    2.3868 H         1 <0>         0.0823
     52 H15        -4.0091    0.0684    1.2576 H         1 <0>         0.3689
     53 H16        -5.4465   -0.5736   -2.5386 H         1 <0>         0.1476
     54 H17        -7.2129   -1.7859   -3.7057 H         1 <0>         0.1479
     55 H18        -7.9133    1.7427   -3.8957 H         1 <0>         0.1242
     56 H19       -12.0331   -0.9229   -3.2933 H         1 <0>         0.1323
     57 H20        -9.8403   -1.9914   -3.0041 H         1 <0>         0.1313
     58 H21       -12.7658    1.5390   -4.8313 H         1 <0>         0.3830
     59 H22       -10.1460    3.2353   -5.2147 H         1 <0>         0.3806
     60 H23        -5.6780    4.5950   -1.9994 H         1 <0>         0.3748
@<TRIPOS>BOND
     1    1    6 ar
     2    1    2 ar
     3    1   38 1
     4    2    3 ar
     5    2    9 1
     6    3    4 ar
     7    3   39 1
     8    4    5 ar
     9    4    8 1
    10    5    6 ar
    11    5    7 1
    12    6   40 1
    13    7   41 1
    14    8   42 1
    15    9   10 2
    16    9   43 1
    17   10   11 1
    18   10   44 1
    19   11   12 2
    20   11   13 1
    21   13   14 1
    22   14   19 1
    23   14   15 1
    24   14   45 1
    25   15   16 1
    26   15   37 1
    27   15   46 1
    28   16   17 1
    29   16   24 1
    30   16   47 1
    31   17   18 1
    32   17   48 1
    33   17   49 1
    34   18   19 1
    35   18   20 1
    36   18   21 1
    37   19   50 1
    38   19   51 1
    39   20   52 1
    40   21   22 2
    41   21   23 1
    42   24   25 1
    43   25   26 2
    44   25   27 1
    45   27   28 2
    46   27   53 1
    47   28   29 1
    48   28   54 1
    49   29   34 ar
    50   29   30 ar
    51   30   31 ar
    52   30   55 1
    53   31   32 ar
    54   31   36 1
    55   32   33 ar
    56   32   35 1
    57   33   34 ar
    58   33   56 1
    59   34   57 1
    60   35   58 1
    61   36   59 1
    62   37   60 1
@<TRIPOS>MOLECULE
CHEMBL441250__1
   60    62     0     0     0
SMALL
USER_CHARGES

@<TRIPOS>ATOM
      1 C1          1.5999    2.3043   -0.2394 C.ar      1 <0>        -0.0728
      2 C2          2.0085    2.7940   -1.4852 C.ar      1 <0>        -0.0542
      3 C3          2.6407    1.9389   -2.3958 C.ar      1 <0>        -0.1104
      4 C4          2.8578    0.6175   -2.0600 C.ar      1 <0>         0.0776
      5 C5          2.4473    0.1370   -0.8167 C.ar      1 <0>         0.0878
      6 C6          1.8206    0.9843    0.0873 C.ar      1 <0>        -0.1235
      7 O1          2.6613   -1.1636   -0.4892 O.3       1 <0>        -0.4852
      8 O2          3.4717   -0.2160   -2.9420 O.3       1 <0>        -0.4865
      9 C7          1.7740    4.2015   -1.8367 C.2       1 <0>        -0.0094
     10 C8          0.5216    4.7069   -1.8016 C.2       1 <0>        -0.1840
     11 C9         -0.5942    3.8336   -1.7541 C.2       1 <0>         0.4848
     12 O3         -0.4343    2.6347   -1.8847 O.2       1 <0>        -0.4863
     13 O4         -1.8336    4.3321   -1.5640 O.3       1 <0>        -0.3385
     14 C10        -2.9114    3.3945   -1.5269 C.3       1 <0>         0.1091
     15 C11        -4.1863    4.0623   -2.0460 C.3       1 <0>         0.1231
     16 C12        -5.3403    3.0584   -2.0063 C.3       1 <0>         0.0673
     17 C13        -5.5597    2.5904   -0.5663 C.3       1 <0>        -0.0993
     18 C14        -4.2848    1.9227   -0.0471 C.3       1 <0>         0.0736
     19 C15        -3.1308    2.9265   -0.0868 C.3       1 <0>        -0.1426
     20 O5         -3.9668    0.7985   -0.8701 O.3       1 <0>        -0.5503
     21 C16        -4.5010    1.4617    1.3713 C.2       1 <0>         0.4835
     22 O6         -4.3927    0.2800    1.6514 O.co2     1 <0>        -0.6769
     23 O7         -4.7841    2.2704    2.2386 O.co2     1 <0>        -0.6904
     24 O8         -6.5310    3.6821   -2.4912 O.3       1 <0>        -0.3518
     25 C17        -7.4329    2.8872   -3.1040 C.2       1 <0>         0.4813
     26 O9         -7.2130    1.6967   -3.2227 O.2       1 <0>        -0.4764
     27 C18        -8.6369    3.4396   -3.6094 C.2       1 <0>        -0.1935
     28 C19        -9.5989    2.6277   -4.0998 C.2       1 <0>        -0.0020
     29 C20        -9.5290    1.1790   -3.8630 C.ar      1 <0>        -0.0717
     30 C21        -9.2520    0.6898   -2.5807 C.ar      1 <0>        -0.0657
     31 C22        -9.1881   -0.6722   -2.3644 C.ar      1 <0>         0.0837
     32 C23        -9.3986   -1.5573   -3.4215 C.ar      1 <0>         0.0917
     33 C24        -9.6729   -1.0731   -4.6937 C.ar      1 <0>        -0.1406
     34 C25        -9.7447    0.2843   -4.9173 C.ar      1 <0>        -0.0913
     35 O10        -9.3347   -2.8967   -3.2061 O.3       1 <0>        -0.4858
     36 O11        -8.9193   -1.1510   -1.1203 O.3       1 <0>        -0.4768
     37 O12        -3.9813    4.4994   -3.3910 O.3       1 <0>        -0.5566
     38 H1          1.1159    2.9621    0.4673 H         1 <0>         0.1258
     39 H2          2.9575    2.3120   -3.3586 H         1 <0>         0.1319
     40 H3          1.5049    0.6075    1.0489 H         1 <0>         0.1360
     41 H4          3.5085   -1.3248   -0.0519 H         1 <0>         0.3834
     42 H5          4.4344   -0.2411   -2.8547 H         1 <0>         0.3819
     43 H6          2.6028    4.8319   -2.1231 H         1 <0>         0.1488
     44 H7          0.3704    5.7763   -1.8097 H         1 <0>         0.1481
     45 H8         -2.6688    2.5371   -2.1546 H         1 <0>         0.0979
     46 H9         -4.4289    4.9197   -1.4183 H         1 <0>         0.0759
     47 H10        -5.0977    2.2010   -2.6341 H         1 <0>         0.1028
     48 H11        -5.8023    3.4478    0.0614 H         1 <0>         0.0875
     49 H12        -6.3818    1.8752   -0.5380 H         1 <0>         0.0747
     50 H13        -2.2225    2.4508    0.2830 H         1 <0>         0.0730
     51 H14        -3.3734    3.7840    0.5409 H         1 <0>         0.0873
     52 H15        -3.1680    0.3259   -0.5988 H         1 <0>         0.3748
     53 H16        -8.7850    4.5093   -3.6023 H         1 <0>         0.1477
     54 H17       -10.4194    3.0433   -4.6659 H         1 <0>         0.1488
     55 H18        -9.0885    1.3762   -1.7630 H         1 <0>         0.1257
     56 H19        -9.8345   -1.7626   -5.5091 H         1 <0>         0.1320
     57 H20        -9.9630    0.6579   -5.9068 H         1 <0>         0.1295
     58 H21       -10.1805   -3.2966   -2.9616 H         1 <0>         0.3840
     59 H22        -9.7059   -1.3011   -0.5782 H         1 <0>         0.3825
     60 H23        -4.7505    4.9331   -3.7852 H         1 <0>         0.3789
@<TRIPOS>BOND
     1    1    6 ar
     2    1    2 ar
     3    1   38 1
     4    2    3 ar
     5    2    9 1
     6    3    4 ar
     7    3   39 1
     8    4    5 ar
     9    4    8 1
    10    5    6 ar
    11    5    7 1
    12    6   40 1
    13    7   41 1
    14    8   42 1
    15    9   10 2
    16    9   43 1
    17   10   11 1
    18   10   44 1
    19   11   12 2
    20   11   13 1
    21   13   14 1
    22   14   19 1
    23   14   15 1
    24   14   45 1
    25   15   16 1
    26   15   37 1
    27   15   46 1
    28   16   17 1
    29   16   24 1
    30   16   47 1
    31   17   18 1
    32   17   48 1
    33   17   49 1
    34   18   19 1
    35   18   20 1
    36   18   21 1
    37   19   50 1
    38   19   51 1
    39   20   52 1
    40   21   22 2
    41   21   23 1
    42   24   25 1
    43   25   26 2
    44   25   27 1
    45   27   28 2
    46   27   53 1
    47   28   29 1
    48   28   54 1
    49   29   34 ar
    50   29   30 ar
    51   30   31 ar
    52   30   55 1
    53   31   32 ar
    54   31   36 1
    55   32   33 ar
    56   32   35 1
    57   33   34 ar
    58   33   56 1
    59   34   57 1
    60   35   58 1
    61   36   59 1
    62   37   60 1
@<TRIPOS>MOLECULE
CHEMBL441250__2
   60    62     0     0     0
SMALL
USER_CHARGES

@<TRIPOS>ATOM
      1 C1         -0.0418    2.8161    4.6705 C.ar      1 <0>        -0.0744
      2 C2          0.9856    3.0203    3.7423 C.ar      1 <0>        -0.0439
      3 C3          1.8695    1.9770    3.4418 C.ar      1 <0>        -0.1102
      4 C4          1.7230    0.7526    4.0627 C.ar      1 <0>         0.0800
      5 C5          0.6964    0.5569    4.9863 C.ar      1 <0>         0.0813
      6 C6         -0.1805    1.5912    5.2853 C.ar      1 <0>        -0.1269
      7 O1          0.5540   -0.6488    5.5949 O.3       1 <0>        -0.4874
      8 O2          2.5798   -0.2631    3.7733 O.3       1 <0>        -0.4865
      9 C7          1.1358    4.3259    3.0846 C.2       1 <0>        -0.0210
     10 C8          0.1043    4.8556    2.3913 C.2       1 <0>        -0.1745
     11 C9         -0.9911    4.0380    2.0149 C.2       1 <0>         0.4862
     12 O3         -0.9416    2.8355    2.1920 O.2       1 <0>        -0.5004
     13 O4         -2.0885    4.5937    1.4602 O.3       1 <0>        -0.3098
     14 C10        -3.1542    3.7103    1.1054 C.3       1 <0>         0.1114
     15 C11        -4.4886    4.4505    1.2161 C.3       1 <0>         0.1224
     16 C12        -4.4853    5.6521    0.2688 C.3       1 <0>         0.0657
     17 C13        -4.2887    5.1674   -1.1690 C.3       1 <0>        -0.0966
     18 C14        -2.9543    4.4271   -1.2797 C.3       1 <0>         0.0748
     19 C15        -2.9575    3.2256   -0.3324 C.3       1 <0>        -0.1502
     20 O5         -1.8886    5.3106   -0.9248 O.3       1 <0>        -0.5364
     21 C16        -2.7606    3.9498   -2.6959 C.2       1 <0>         0.4800
     22 O6         -1.7990    4.3308   -3.3415 O.co2     1 <0>        -0.6805
     23 O7         -3.5654    3.1826   -3.1961 O.co2     1 <0>        -0.6929
     24 O8         -5.7316    6.3435    0.3722 O.3       1 <0>        -0.3563
     25 C17        -5.7153    7.6732    0.1435 C.2       1 <0>         0.4810
     26 O9         -4.6702    8.2295   -0.1361 O.2       1 <0>        -0.4765
     27 C18        -6.9161    8.4220    0.2291 C.2       1 <0>        -0.1930
     28 C19        -6.9274    9.7240   -0.1313 C.2       1 <0>        -0.0043
     29 C20        -5.7887   10.2931   -0.8655 C.ar      1 <0>        -0.0700
     30 C21        -5.2497    9.6114   -1.9631 C.ar      1 <0>        -0.0650
     31 C22        -4.1801   10.1514   -2.6491 C.ar      1 <0>         0.0841
     32 C23        -3.6389   11.3727   -2.2483 C.ar      1 <0>         0.0910
     33 C24        -4.1725   12.0494   -1.1595 C.ar      1 <0>        -0.1405
     34 C25        -5.2436   11.5210   -0.4730 C.ar      1 <0>        -0.0918
     35 O10        -2.5865   11.9015   -2.9247 O.3       1 <0>        -0.4862
     36 O11        -3.6539    9.4921   -3.7158 O.3       1 <0>        -0.4770
     37 O12        -4.6722    4.9032    2.5590 O.3       1 <0>        -0.5573
     38 H1         -0.7228    3.6200    4.9081 H         1 <0>         0.1249
     39 H2          2.6637    2.1295    2.7260 H         1 <0>         0.1338
     40 H3         -0.9736    1.4347    6.0014 H         1 <0>         0.1317
     41 H4          1.0477   -0.7326    6.4221 H         1 <0>         0.3825
     42 H5          3.3626   -0.2910    4.3403 H         1 <0>         0.3826
     43 H6          2.0707    4.8618    3.1554 H         1 <0>         0.1489
     44 H7          0.1141    5.9019    2.1239 H         1 <0>         0.1498
     45 H8         -3.1565    2.8543    1.7802 H         1 <0>         0.0911
     46 H9         -5.3014    3.7767    0.9454 H         1 <0>         0.0824
     47 H10        -3.6724    6.3259    0.5395 H         1 <0>         0.1105
     48 H11        -5.1015    4.4936   -1.4397 H         1 <0>         0.0827
     49 H12        -4.2863    6.0234   -1.8438 H         1 <0>         0.0716
     50 H13        -2.0069    2.6982   -0.4113 H         1 <0>         0.0748
     51 H14        -3.7704    2.5518   -0.6031 H         1 <0>         0.0938
     52 H15        -1.0110    4.9073   -0.9725 H         1 <0>         0.3645
     53 H16        -7.8218    7.9516    0.5823 H         1 <0>         0.1466
     54 H17        -7.7733   10.3466    0.1202 H         1 <0>         0.1480
     55 H18        -5.6691    8.6654   -2.2722 H         1 <0>         0.1254
     56 H19        -3.7494   12.9944   -0.8527 H         1 <0>         0.1316
     57 H20        -5.6597   12.0518    0.3704 H         1 <0>         0.1292
     58 H21        -2.8402   12.4785   -3.6580 H         1 <0>         0.3839
     59 H22        -4.0604    9.7250   -4.5618 H         1 <0>         0.3825
     60 H23        -5.4998    5.3822    2.7028 H         1 <0>         0.3791
@<TRIPOS>BOND
     1    1    6 ar
     2    1    2 ar
     3    1   38 1
     4    2    3 ar
     5    2    9 1
     6    3    4 ar
     7    3   39 1
     8    4    5 ar
     9    4    8 1
    10    5    6 ar
    11    5    7 1
    12    6   40 1
    13    7   41 1
    14    8   42 1
    15    9   10 2
    16    9   43 1
    17   10   11 1
    18   10   44 1
    19   11   12 2
    20   11   13 1
    21   13   14 1
    22   14   19 1
    23   14   15 1
    24   14   45 1
    25   15   16 1
    26   15   37 1
    27   15   46 1
    28   16   17 1
    29   16   24 1
    30   16   47 1
    31   17   18 1
    32   17   48 1
    33   17   49 1
    34   18   19 1
    35   18   20 1
    36   18   21 1
    37   19   50 1
    38   19   51 1
    39   20   52 1
    40   21   22 2
    41   21   23 1
    42   24   25 1
    43   25   26 2
    44   25   27 1
    45   27   28 2
    46   27   53 1
    47   28   29 1
    48   28   54 1
    49   29   34 ar
    50   29   30 ar
    51   30   31 ar
    52   30   55 1
    53   31   32 ar
    54   31   36 1
    55   32   33 ar
    56   32   35 1
    57   33   34 ar
    58   33   56 1
    59   34   57 1
    60   35   58 1
    61   36   59 1
    62   37   60 1
@<TRIPOS>MOLECULE
CHEMBL386710
   48    50     0     0     0
SMALL
USER_CHARGES

@<TRIPOS>ATOM
      1 C1         -0.1809    1.4281    0.0345 C.3       1 <0>         0.0489
      2 N1         -0.0610   -0.0319    0.0285 N.am      1 <0>        -0.4963
      3 C2         -0.1492   -0.7112   -1.1363 C.2       1 <0>         0.4934
      4 O1         -0.3277   -0.1282   -2.1916 O.2       1 <0>        -0.5127
      5 C3         -0.0228   -2.1736   -1.0913 C.2       1 <0>         0.0712
      6 C4          0.1794   -2.7654    0.1453 C.2       1 <0>         0.0381
      7 N2          0.2518   -1.9930    1.2446 N.2       1 <0>        -0.4817
      8 C5          0.1437   -0.6985    1.1903 C.2       1 <0>         0.3689
      9 C6          0.2433    0.0908    2.4701 C.3       1 <0>         0.0965
     10 C7          0.8396   -0.7917    3.5699 C.3       1 <0>         0.0448
     11 O2          0.8622   -0.0621    4.7998 O.3       1 <0>        -0.3716
     12 C8         -0.4270    0.3853    5.2276 C.3       1 <0>         0.0175
     13 C9         -1.0361    1.2798    4.1446 C.3       1 <0>         0.0186
     14 N3         -1.0973    0.5351    2.8785 N.3       1 <0>        -0.5279
     15 C10        -2.0205   -0.6030    2.9812 C.3       1 <0>         0.0109
     16 C11         0.3140   -4.2353    0.2560 C.2       1 <0>         0.5791
     17 O3          0.2474   -4.9283   -0.7402 O.2       1 <0>        -0.5068
     18 N4          0.5105   -4.8051    1.4614 N.am      1 <0>        -0.7118
     19 C12         0.6438   -6.2599    1.5710 C.3       1 <0>         0.1627
     20 C13         0.8540   -6.6378    3.0146 C.ar      1 <0>        -0.1216
     21 C14         2.1346   -6.7080    3.5307 C.ar      1 <0>        -0.0685
     22 C15         2.3286   -7.0540    4.8546 C.ar      1 <0>        -0.1548
     23 C16         1.2398   -7.3304    5.6640 C.ar      1 <0>         0.1085
     24 C17        -0.0423   -7.2598    5.1460 C.ar      1 <0>        -0.1555
     25 C18        -0.2341   -6.9085    3.8232 C.ar      1 <0>        -0.0693
     26 F1          1.4282   -7.6692    6.9582 F         1 <0>        -0.1370
     27 O4         -0.1016   -2.9195   -2.2213 O.3       1 <0>        -0.4092
     28 H1          0.8130    1.8744    0.0011 H         1 <0>         0.0806
     29 H2         -0.7528    1.7493   -0.8361 H         1 <0>         0.0976
     30 H3         -0.6920    1.7470    0.9429 H         1 <0>         0.1131
     31 H4          0.8826    0.9596    2.3132 H         1 <0>         0.1214
     32 H5          0.2293   -1.6870    3.6891 H         1 <0>         0.0745
     33 H6          1.8556   -1.0767    3.2970 H         1 <0>         0.1082
     34 H7         -1.0741   -0.4757    5.3949 H         1 <0>         0.0576
     35 H8         -0.3270    0.9516    6.1535 H         1 <0>         0.1060
     36 H9         -2.0421    1.5768    4.4411 H         1 <0>         0.0973
     37 H10        -0.4171    2.1675    4.0151 H         1 <0>         0.0932
     38 H11        -1.6859   -1.2718    3.7741 H         1 <0>         0.0423
     39 H12        -3.0218   -0.2389    3.2113 H         1 <0>         0.0790
     40 H13        -2.0388   -1.1426    2.0343 H         1 <0>         0.0674
     41 H14         0.5636   -4.2520    2.2565 H         1 <0>         0.4097
     42 H15        -0.2629   -6.7369    1.1989 H         1 <0>         0.0813
     43 H16         1.4976   -6.5920    0.9804 H         1 <0>         0.0816
     44 H17         2.9837   -6.4927    2.8991 H         1 <0>         0.1359
     45 H18         3.3291   -7.1091    5.2575 H         1 <0>         0.1387
     46 H19        -0.8923   -7.4755    5.7763 H         1 <0>         0.1382
     47 H20        -1.2343   -6.8490    3.4201 H         1 <0>         0.1353
     48 H21        -0.2444   -2.4015   -3.0253 H         1 <0>         0.4070
@<TRIPOS>BOND
     1    1    2 1
     2    1   28 1
     3    1   29 1
     4    1   30 1
     5    2    8 1
     6    2    3 am
     7    3    4 2
     8    3    5 1
     9    5    6 2
    10    5   27 1
    11    6    7 1
    12    6   16 1
    13    7    8 2
    14    8    9 1
    15    9   14 1
    16    9   10 1
    17    9   31 1
    18   10   11 1
    19   10   32 1
    20   10   33 1
    21   11   12 1
    22   12   13 1
    23   12   34 1
    24   12   35 1
    25   13   14 1
    26   13   36 1
    27   13   37 1
    28   14   15 1
    29   15   38 1
    30   15   39 1
    31   15   40 1
    32   16   17 2
    33   16   18 am
    34   18   19 1
    35   18   41 1
    36   19   20 1
    37   19   42 1
    38   19   43 1
    39   20   25 ar
    40   20   21 ar
    41   21   22 ar
    42   21   44 1
    43   22   23 ar
    44   22   45 1
    45   23   24 ar
    46   23   26 1
    47   24   25 ar
    48   24   46 1
    49   25   47 1
    50   27   48 1
@<TRIPOS>MOLECULE
CHEMBL386710__1
   48    50     0     0     0
SMALL
USER_CHARGES

@<TRIPOS>ATOM
      1 C1         -0.1858    1.4690    0.0377 C.3       1 <0>         0.0499
      2 N1         -0.0800    0.0081    0.0136 N.am      1 <0>        -0.5082
      3 C2         -0.1818   -0.6563   -1.1587 C.2       1 <0>         0.4952
      4 O1         -0.3611   -0.0590   -2.2058 O.2       1 <0>        -0.5131
      5 C3         -0.0693   -2.1203   -1.1319 C.2       1 <0>         0.0699
      6 C4          0.1345   -2.7288    0.0963 C.2       1 <0>         0.0360
      7 N2          0.2210   -1.9704    1.2042 N.2       1 <0>        -0.4463
      8 C5          0.1252   -0.6744    1.1660 C.2       1 <0>         0.3525
      9 C6          0.2401    0.0986    2.4546 C.3       1 <0>         0.1012
     10 C7         -1.1221    0.1343    3.1526 C.3       1 <0>         0.0734
     11 O2         -0.9906    0.8037    4.4095 O.3       1 <0>        -0.3744
     12 C8         -0.0459    0.1917    5.2917 C.3       1 <0>         0.0586
     13 C9          1.3272    0.1566    4.6154 C.3       1 <0>         0.0182
     14 N3          1.2187   -0.5567    3.3345 N.3       1 <0>        -0.5132
     15 C10         2.5287   -0.6626    2.6783 C.3       1 <0>         0.0226
     16 C11         0.2556   -4.2011    0.1886 C.2       1 <0>         0.5791
     17 O3          0.1763   -4.8815   -0.8153 O.2       1 <0>        -0.5095
     18 N4          0.4538   -4.7872    1.3859 N.am      1 <0>        -0.7098
     19 C12         0.5737   -6.2445    1.4773 C.3       1 <0>         0.1628
     20 C13         0.7889   -6.6417    2.9150 C.ar      1 <0>        -0.1199
     21 C14         2.0718   -6.7303    3.4224 C.ar      1 <0>        -0.0680
     22 C15         2.2704   -7.0940    4.7408 C.ar      1 <0>        -0.1551
     23 C16         1.1839   -7.3696    5.5535 C.ar      1 <0>         0.1079
     24 C17        -0.1005   -7.2805    5.0442 C.ar      1 <0>        -0.1550
     25 C18        -0.2969   -6.9115    3.7270 C.ar      1 <0>        -0.0682
     26 F1          1.3769   -7.7257    6.8424 F         1 <0>        -0.1377
     27 O4         -0.1622   -2.8518   -2.2702 O.3       1 <0>        -0.4086
     28 H1          0.8120    1.9062    0.0005 H         1 <0>         0.0845
     29 H2         -0.7624    1.8059   -0.8238 H         1 <0>         0.1043
     30 H3         -0.6856    1.7820    0.9544 H         1 <0>         0.0947
     31 H4          0.5670    1.1162    2.2408 H         1 <0>         0.0792
     32 H5         -1.8371    0.6698    2.5280 H         1 <0>         0.1009
     33 H6         -1.4733   -0.8843    3.3176 H         1 <0>         0.0761
     34 H7          0.0175    0.7687    6.2143 H         1 <0>         0.1047
     35 H8         -0.3658   -0.8252    5.5189 H         1 <0>         0.0671
     36 H9          1.6711    1.1753    4.4367 H         1 <0>         0.0475
     37 H10         2.0376   -0.3602    5.2607 H         1 <0>         0.0968
     38 H11         2.9314    0.3359    2.5077 H         1 <0>         0.0275
     39 H12         3.2104   -1.2250    3.3164 H         1 <0>         0.0795
     40 H13         2.4165   -1.1771    1.7239 H         1 <0>         0.0692
     41 H14         0.5171   -4.2442    2.1872 H         1 <0>         0.4139
     42 H15        -0.3399   -6.7082    1.1051 H         1 <0>         0.0807
     43 H16         1.4207   -6.5777    0.8776 H         1 <0>         0.0806
     44 H17         2.9192   -6.5156    2.7881 H         1 <0>         0.1350
     45 H18         3.2727   -7.1636    5.1369 H         1 <0>         0.1377
     46 H19        -0.9488   -7.4956    5.6772 H         1 <0>         0.1380
     47 H20        -1.2989   -6.8376    3.3307 H         1 <0>         0.1353
     48 H21        -0.3047   -2.3229   -3.0671 H         1 <0>         0.4065
@<TRIPOS>BOND
     1    1    2 1
     2    1   28 1
     3    1   29 1
     4    1   30 1
     5    2    8 1
     6    2    3 am
     7    3    4 2
     8    3    5 1
     9    5    6 2
    10    5   27 1
    11    6    7 1
    12    6   16 1
    13    7    8 2
    14    8    9 1
    15    9   14 1
    16    9   10 1
    17    9   31 1
    18   10   11 1
    19   10   32 1
    20   10   33 1
    21   11   12 1
    22   12   13 1
    23   12   34 1
    24   12   35 1
    25   13   14 1
    26   13   36 1
    27   13   37 1
    28   14   15 1
    29   15   38 1
    30   15   39 1
    31   15   40 1
    32   16   17 2
    33   16   18 am
    34   18   19 1
    35   18   41 1
    36   19   20 1
    37   19   42 1
    38   19   43 1
    39   20   25 ar
    40   20   21 ar
    41   21   22 ar
    42   21   44 1
    43   22   23 ar
    44   22   45 1
    45   23   24 ar
    46   23   26 1
    47   24   25 ar
    48   24   46 1
    49   25   47 1
    50   27   48 1
@<TRIPOS>MOLECULE
CHEMBL267578
   55    58     0     0     0
SMALL
USER_CHARGES

@<TRIPOS>ATOM
      1 C1         -0.0170    1.4029    0.0098 C.ar      1 <0>        -0.1055
      2 C2          1.1486    2.0984    0.0024 C.ar      1 <0>        -0.0894
      3 C3          2.3864    1.4306   -0.0130 C.ar      1 <0>        -0.1366
      4 C4          2.4382    0.0457   -0.0208 C.ar      1 <0>        -0.0274
      5 C5          1.2444   -0.6893   -0.0134 C.ar      1 <0>        -0.0568
      6 C6          0.0021   -0.0041    0.0020 C.ar      1 <0>        -0.0259
      7 C7         -1.1925   -0.7424    0.0089 C.ar      1 <0>        -0.1271
      8 C8         -1.1461   -2.1066    0.0007 C.ar      1 <0>         0.1024
      9 C9          0.0826   -2.7848   -0.0141 C.ar      1 <0>         0.0870
     10 C10         1.2596   -2.0963   -0.0215 C.ar      1 <0>        -0.1089
     11 O1          0.0995   -4.1440   -0.0215 O.3       1 <0>        -0.4866
     12 O2         -2.3042   -2.8170    0.0074 O.3       1 <0>        -0.4873
     13 C11         3.6402    2.2110   -0.0213 C.2       1 <0>         0.5597
     14 O3          4.7126    1.6384   -0.0345 O.2       1 <0>        -0.5311
     15 N1          3.5956    3.5580   -0.0141 N.am      1 <0>        -0.7273
     16 C12         4.8393    4.3322   -0.0223 C.3       1 <0>         0.1219
     17 C13         4.5101    5.8263   -0.0117 C.3       1 <0>        -0.1452
     18 C14         5.8090    6.6348   -0.0202 C.3       1 <0>         0.1219
     19 N2          5.4937    8.0655   -0.0101 N.am      1 <0>        -0.7273
     20 C15         6.4885    8.9748   -0.0152 C.2       1 <0>         0.5597
     21 O4          7.6475    8.6078   -0.0282 O.2       1 <0>        -0.5311
     22 C16         6.1707   10.4170   -0.0049 C.ar      1 <0>        -0.1366
     23 C17         4.8281   10.8358    0.0160 C.ar      1 <0>        -0.0895
     24 C18         4.5112   12.1556    0.0254 C.ar      1 <0>        -0.1054
     25 C19         5.5310   13.1250    0.0147 C.ar      1 <0>        -0.0259
     26 C20         5.2243   14.4954    0.0246 C.ar      1 <0>        -0.1271
     27 C21         6.2325   15.4156    0.0142 C.ar      1 <0>         0.1024
     28 C22         7.5762   15.0106   -0.0068 C.ar      1 <0>         0.0870
     29 C23         7.9062   13.6877   -0.0169 C.ar      1 <0>        -0.1089
     30 C24         6.8892   12.7152   -0.0061 C.ar      1 <0>        -0.0568
     31 C25         7.1977   11.3476   -0.0102 C.ar      1 <0>        -0.0274
     32 O5          8.5602   15.9484   -0.0177 O.3       1 <0>        -0.4866
     33 O6          5.9314   16.7405    0.0239 O.3       1 <0>        -0.4873
     34 H1         -0.9596    1.9298    0.0261 H         1 <0>         0.1365
     35 H2          1.1253    3.1781    0.0080 H         1 <0>         0.1276
     36 H3          3.3907   -0.4633   -0.0330 H         1 <0>         0.1457
     37 H4         -2.1445   -0.2326    0.0210 H         1 <0>         0.1427
     38 H5          2.1993   -2.6286   -0.0329 H         1 <0>         0.1442
     39 H6          0.0964   -4.5326   -0.9070 H         1 <0>         0.3909
     40 H7         -2.6477   -3.0177   -0.8740 H         1 <0>         0.3921
     41 H8          2.7400    4.0149   -0.0035 H         1 <0>         0.4009
     42 H9          5.4279    4.0835    0.8608 H         1 <0>         0.0758
     43 H10         5.4106    4.0924   -0.9191 H         1 <0>         0.0758
     44 H11         3.9215    6.0750   -0.8948 H         1 <0>         0.0793
     45 H12         3.9387    6.0661    0.8851 H         1 <0>         0.0793
     46 H13         6.3975    6.3862    0.8628 H         1 <0>         0.0758
     47 H14         6.3803    6.3950   -0.9170 H         1 <0>         0.0758
     48 H15         4.5690    8.3583    0.0004 H         1 <0>         0.4009
     49 H16         4.0395   10.0980    0.0244 H         1 <0>         0.1276
     50 H17         3.4756   12.4618    0.0407 H         1 <0>         0.1365
     51 H18         4.1944   14.8201    0.0401 H         1 <0>         0.1427
     52 H19         8.9436   13.3875   -0.0334 H         1 <0>         0.1442
     53 H20         8.2274   11.0219   -0.0219 H         1 <0>         0.1457
     54 H21         8.8578   16.2165    0.8624 H         1 <0>         0.3909
     55 H22         5.8566   17.1204    0.9100 H         1 <0>         0.3921
@<TRIPOS>BOND
     1    1    6 ar
     2    1    2 ar
     3    1   34 1
     4    2    3 ar
     5    2   35 1
     6    3    4 ar
     7    3   13 1
     8    4    5 ar
     9    4   36 1
    10    5   10 ar
    11    5    6 ar
    12    6    7 ar
    13    7    8 ar
    14    7   37 1
    15    8    9 ar
    16    8   12 1
    17    9   10 ar
    18    9   11 1
    19   10   38 1
    20   11   39 1
    21   12   40 1
    22   13   14 2
    23   13   15 am
    24   15   16 1
    25   15   41 1
    26   16   17 1
    27   16   42 1
    28   16   43 1
    29   17   18 1
    30   17   44 1
    31   17   45 1
    32   18   19 1
    33   18   46 1
    34   18   47 1
    35   19   20 am
    36   19   48 1
    37   20   21 2
    38   20   22 1
    39   22   31 ar
    40   22   23 ar
    41   23   24 ar
    42   23   49 1
    43   24   25 ar
    44   24   50 1
    45   25   30 ar
    46   25   26 ar
    47   26   27 ar
    48   26   51 1
    49   27   28 ar
    50   27   33 1
    51   28   29 ar
    52   28   32 1
    53   29   30 ar
    54   29   52 1
    55   30   31 ar
    56   31   53 1
    57   32   54 1
    58   33   55 1
@<TRIPOS>MOLECULE
CHEMBL414850
   49    52     0     0     0
SMALL
USER_CHARGES

@<TRIPOS>ATOM
      1 C1          0.0118    1.3877   -0.4817 C.ar      1 <0>        -0.1540
      2 C2          1.1800    2.0871   -0.3362 C.ar      1 <0>        -0.0451
      3 C3          2.3676    1.3597   -0.1837 C.ar      1 <0>        -0.1220
      4 C4          2.3147   -0.0557   -0.1858 C.ar      1 <0>         0.1257
      5 C5          3.5286   -0.7657   -0.0305 C.ar      1 <0>         0.1831
      6 C6          4.7114   -0.0576    0.1163 C.ar      1 <0>         0.0359
      7 N1          4.7456    1.2798    0.1168 N.ar      1 <0>        -0.4386
      8 C7          3.6619    2.0133   -0.0226 C.ar      1 <0>         0.4035
      9 N2          3.7495    3.3967   -0.0164 N.pl3     1 <0>        -0.9369
     10 C8          3.8948    4.1531   -1.2692 C.3       1 <0>         0.1130
     11 C9          5.1609    5.0052   -1.2057 C.3       1 <0>        -0.1578
     12 C10         5.0443    6.0647   -0.1125 C.3       1 <0>        -0.1126
     13 C11         5.1036    5.3959    1.2658 C.3       1 <0>        -0.6050
     14 S1          3.6867    4.2545    1.4086 S.o2      1 <0>         2.5858
     15 O1          2.4617    4.9726    1.3536 O.2       1 <0>        -0.9389
     16 O2          3.9246    3.2940    2.4284 O.2       1 <0>        -0.9383
     17 C12         5.9740   -0.8036    0.2779 C.2       1 <0>         0.5760
     18 O3          5.9657   -2.0195    0.2807 O.2       1 <0>        -0.5112
     19 N3          7.1367   -0.1373    0.4223 N.am      1 <0>        -0.7106
     20 C13         8.3904   -0.8780    0.5827 C.3       1 <0>         0.1620
     21 C14         9.5335    0.0939    0.7237 C.ar      1 <0>        -0.1219
     22 C15        10.2035    0.5399   -0.4003 C.ar      1 <0>        -0.0691
     23 C16        11.2516    1.4314   -0.2723 C.ar      1 <0>        -0.1559
     24 C17        11.6306    1.8780    0.9823 C.ar      1 <0>         0.1079
     25 C18        10.9589    1.4306    2.1073 C.ar      1 <0>        -0.1552
     26 C19         9.9076    0.5431    1.9764 C.ar      1 <0>        -0.0685
     27 F1         12.6554    2.7492    1.1087 F         1 <0>        -0.1372
     28 O4          3.5349   -2.1218   -0.0249 O.3       1 <0>        -0.4478
     29 N4          1.1469   -0.6791   -0.3314 N.ar      1 <0>        -0.4499
     30 C20         0.0298   -0.0037   -0.4749 C.ar      1 <0>         0.1453
     31 H1         -0.9234    1.9156   -0.5971 H         1 <0>         0.1521
     32 H2          1.1858    3.1671   -0.3393 H         1 <0>         0.1537
     33 H3          3.9657    3.4589   -2.1066 H         1 <0>         0.0968
     34 H4          3.0280    4.7997   -1.4058 H         1 <0>         0.0914
     35 H5          6.0156    4.3630   -0.9936 H         1 <0>         0.0853
     36 H6          5.3115    5.4964   -2.1670 H         1 <0>         0.0995
     37 H7          5.8660    6.7746   -0.2066 H         1 <0>         0.0938
     38 H8          4.0965    6.5925   -0.2188 H         1 <0>         0.0857
     39 H9          6.0368    4.8415    1.3651 H         1 <0>         0.1404
     40 H10         5.0421    6.1551    2.0454 H         1 <0>         0.1380
     41 H11         7.1433    0.8327    0.4200 H         1 <0>         0.4111
     42 H12         8.3321   -1.5022    1.4744 H         1 <0>         0.0826
     43 H13         8.5547   -1.5078   -0.2916 H         1 <0>         0.0824
     44 H14         9.9079    0.1911   -1.3788 H         1 <0>         0.1356
     45 H15        11.7751    1.7795   -1.1505 H         1 <0>         0.1383
     46 H16        11.2539    1.7780    3.0865 H         1 <0>         0.1388
     47 H17         9.3806    0.1974    2.8535 H         1 <0>         0.1367
     48 H18         3.6471   -2.5182   -0.8997 H         1 <0>         0.4031
     49 H19        -0.8992   -0.5423   -0.5903 H         1 <0>         0.1732
@<TRIPOS>BOND
     1    1   30 ar
     2    1    2 ar
     3    1   31 1
     4    2    3 ar
     5    2   32 1
     6    3    8 ar
     7    3    4 ar
     8    4    5 ar
     9    4   29 ar
    10    5    6 ar
    11    5   28 1
    12    6    7 ar
    13    6   17 1
    14    7    8 ar
    15    8    9 1
    16    9   14 1
    17    9   10 1
    18   10   11 1
    19   10   33 1
    20   10   34 1
    21   11   12 1
    22   11   35 1
    23   11   36 1
    24   12   13 1
    25   12   37 1
    26   12   38 1
    27   13   14 1
    28   13   39 1
    29   13   40 1
    30   14   15 2
    31   14   16 2
    32   17   18 2
    33   17   19 am
    34   19   20 1
    35   19   41 1
    36   20   21 1
    37   20   42 1
    38   20   43 1
    39   21   26 ar
    40   21   22 ar
    41   22   23 ar
    42   22   44 1
    43   23   24 ar
    44   23   45 1
    45   24   25 ar
    46   24   27 1
    47   25   26 ar
    48   25   46 1
    49   26   47 1
    50   28   48 1
    51   29   30 ar
    52   30   49 1
@<TRIPOS>MOLECULE
CHEMBL385951
   39    41     0     0     0
SMALL
USER_CHARGES

@<TRIPOS>ATOM
      1 C1         -0.0167    1.3781    0.0096 C.ar      1 <0>        -0.1108
      2 C2          1.1709    2.0855    0.0021 C.ar      1 <0>        -0.1216
      3 C3          2.3773    1.4107   -0.0130 C.ar      1 <0>        -0.0992
      4 C4          2.3960    0.0285   -0.0201 C.ar      1 <0>        -0.1104
      5 C5          1.2084   -0.6789   -0.0117 C.ar      1 <0>        -0.0991
      6 C6          0.0021   -0.0041    0.0020 C.ar      1 <0>        -0.1215
      7 C7          3.7112   -0.7071   -0.0376 C.3       1 <0>         0.1612
      8 N1          4.1518   -0.9524    1.3379 N.am      1 <0>        -0.7097
      9 C8          5.3108   -1.6005    1.5688 C.2       1 <0>         0.5779
     10 O1          5.9902   -1.9814    0.6360 O.2       1 <0>        -0.5070
     11 C9          5.7561   -1.8484    2.9590 C.2       1 <0>         0.0467
     12 C10         6.9512   -2.5100    3.2013 C.2       1 <0>         0.0650
     13 C11         7.3449   -2.7287    4.5980 C.2       1 <0>         0.5030
     14 N2          6.5221   -2.2739    5.5685 N.am      1 <0>        -0.6163
     15 C12         5.3643   -1.6328    5.2364 C.2       1 <0>         0.4051
     16 N3          5.0089   -1.4295    3.9918 N.2       1 <0>        -0.4748
     17 C13         4.4832   -1.1458    6.3184 C.ar      1 <0>        -0.0690
     18 C14         4.8411   -1.3380    7.6540 C.ar      1 <0>        -0.0962
     19 C15         4.0140   -0.8810    8.6591 C.ar      1 <0>        -0.1179
     20 C16         2.8320   -0.2336    8.3458 C.ar      1 <0>        -0.0910
     21 C17         2.4711   -0.0402    7.0242 C.ar      1 <0>        -0.1217
     22 C18         3.2922   -0.4864    6.0094 C.ar      1 <0>        -0.0553
     23 O2          8.3832   -3.3040    4.8744 O.2       1 <0>        -0.5137
     24 O3          7.7313   -2.9417    2.1790 O.3       1 <0>        -0.4080
     25 H1         -0.9591    1.9053    0.0259 H         1 <0>         0.1235
     26 H2          1.1563    3.1654    0.0076 H         1 <0>         0.1244
     27 H3          3.3051    1.9634   -0.0196 H         1 <0>         0.1241
     28 H4          1.2231   -1.7588   -0.0176 H         1 <0>         0.1242
     29 H5         -0.9258   -0.5567    0.0082 H         1 <0>         0.1244
     30 H6          3.5884   -1.6586   -0.5549 H         1 <0>         0.0791
     31 H7          4.4573   -0.1052   -0.5563 H         1 <0>         0.0791
     32 H8          3.6095   -0.6484    2.0824 H         1 <0>         0.4104
     33 H9          5.7631   -1.8438    7.8999 H         1 <0>         0.1235
     34 H10         4.2897   -1.0290    9.6928 H         1 <0>         0.1330
     35 H11         2.1879    0.1219    9.1365 H         1 <0>         0.1306
     36 H12         1.5469    0.4655    6.7865 H         1 <0>         0.1339
     37 H13         3.0119   -0.3302    4.9781 H         1 <0>         0.1431
     38 H14         6.7544   -2.4033    6.5013 H         1 <0>         0.4239
     39 H15         8.5399   -3.3894    2.4632 H         1 <0>         0.4069
@<TRIPOS>BOND
     1    1    6 ar
     2    1    2 ar
     3    1   25 1
     4    2    3 ar
     5    2   26 1
     6    3    4 ar
     7    3   27 1
     8    4    5 ar
     9    4    7 1
    10    5    6 ar
    11    5   28 1
    12    6   29 1
    13    7    8 1
    14    7   30 1
    15    7   31 1
    16    8    9 am
    17    8   32 1
    18    9   10 2
    19    9   11 1
    20   11   16 1
    21   11   12 2
    22   12   24 1
    23   12   13 1
    24   13   23 2
    25   13   14 am
    26   14   15 1
    27   14   38 1
    28   15   17 1
    29   15   16 2
    30   17   22 ar
    31   17   18 ar
    32   18   19 ar
    33   18   33 1
    34   19   20 ar
    35   19   34 1
    36   20   21 ar
    37   20   35 1
    38   21   22 ar
    39   21   36 1
    40   22   37 1
    41   24   39 1
@<TRIPOS>MOLECULE
CHEMBL385951__1
   39    41     0     0     0
SMALL
USER_CHARGES

@<TRIPOS>ATOM
      1 C1          8.4941   -3.3814   -3.5673 C.ar      1 <0>        -0.1082
      2 C2          7.4475   -4.1681   -3.1238 C.ar      1 <0>        -0.1208
      3 C3          6.5184   -3.6492   -2.2415 C.ar      1 <0>        -0.0999
      4 C4          6.6362   -2.3438   -1.8023 C.ar      1 <0>        -0.1164
      5 C5          7.6832   -1.5574   -2.2451 C.ar      1 <0>        -0.0998
      6 C6          8.6116   -2.0758   -3.1284 C.ar      1 <0>        -0.1208
      7 C7          5.6227   -1.7779   -0.8413 C.3       1 <0>         0.1635
      8 N1          6.0645   -2.0219    0.5341 N.am      1 <0>        -0.7261
      9 C8          5.3108   -1.6005    1.5688 C.2       1 <0>         0.5687
     10 O1          4.3122   -0.9380    1.3634 O.2       1 <0>        -0.4851
     11 C9          5.6974   -1.9432    2.9511 C.2       1 <0>         0.0062
     12 C10         4.8863   -1.6139    4.0025 C.2       1 <0>         0.0734
     13 C11         5.3259   -1.9830    5.3593 C.2       1 <0>         0.4962
     14 N2          6.4929   -2.6214    5.5115 N.2       1 <0>        -0.5673
     15 C12         7.2437   -2.9196    4.4713 C.2       1 <0>         0.4845
     16 N3          6.8787   -2.6053    3.2046 N.pl3     1 <0>        -0.5878
     17 C13         8.5236   -3.6245    4.6923 C.ar      1 <0>        -0.0875
     18 C14         9.3421   -3.9479    3.6085 C.ar      1 <0>        -0.0904
     19 C15        10.5358   -4.6056    3.8218 C.ar      1 <0>        -0.1211
     20 C16        10.9223   -4.9452    5.1063 C.ar      1 <0>        -0.0827
     21 C17        10.1156   -4.6281    6.1848 C.ar      1 <0>        -0.1237
     22 C18         8.9223   -3.9650    5.9862 C.ar      1 <0>        -0.0420
     23 O2          4.6372   -1.7106    6.3296 O.2       1 <0>        -0.4871
     24 O3          3.7122   -0.9664    3.8016 O.3       1 <0>        -0.4186
     25 H1          9.2225   -3.7881   -4.2531 H         1 <0>         0.1252
     26 H2          7.3556   -5.1880   -3.4670 H         1 <0>         0.1260
     27 H3          5.7004   -4.2637   -1.8956 H         1 <0>         0.1250
     28 H4          7.7750   -0.5374   -1.9022 H         1 <0>         0.1251
     29 H5          9.4294   -1.4612   -3.4746 H         1 <0>         0.1260
     30 H6          5.5249   -0.7049   -1.0065 H         1 <0>         0.0837
     31 H7          4.6588   -2.2599   -1.0041 H         1 <0>         0.0825
     32 H8          6.8996   -2.4867    0.6999 H         1 <0>         0.3934
     33 H9          9.0413   -3.6840    2.6054 H         1 <0>         0.1215
     34 H10        11.1700   -4.8563    2.9843 H         1 <0>         0.1346
     35 H11        11.8576   -5.4604    5.2677 H         1 <0>         0.1327
     36 H12        10.4228   -4.8966    7.1848 H         1 <0>         0.1366
     37 H13         8.2957   -3.7141    6.8292 H         1 <0>         0.1488
     38 H14         7.4593   -2.8467    2.4660 H         1 <0>         0.4190
     39 H15         3.2198   -0.7837    4.6136 H         1 <0>         0.4125
@<TRIPOS>BOND
     1    1    6 ar
     2    1    2 ar
     3    1   25 1
     4    2    3 ar
     5    2   26 1
     6    3    4 ar
     7    3   27 1
     8    4    5 ar
     9    4    7 1
    10    5    6 ar
    11    5   28 1
    12    6   29 1
    13    7    8 1
    14    7   30 1
    15    7   31 1
    16    8    9 am
    17    8   32 1
    18    9   10 2
    19    9   11 1
    20   11   16 1
    21   11   12 2
    22   12   24 1
    23   12   13 1
    24   13   23 2
    25   13   14 1
    26   14   15 2
    27   15   17 1
    28   15   16 1
    29   16   38 1
    30   17   22 ar
    31   17   18 ar
    32   18   19 ar
    33   18   33 1
    34   19   20 ar
    35   19   34 1
    36   20   21 ar
    37   20   35 1
    38   21   22 ar
    39   21   36 1
    40   22   37 1
    41   24   39 1
@<TRIPOS>MOLECULE
CHEMBL385951__2
   38    40     0     0     0
SMALL
USER_CHARGES

@<TRIPOS>ATOM
      1 C1         -0.0167    1.3781    0.0096 C.ar      1 <0>        -0.1161
      2 C2          1.1709    2.0855    0.0021 C.ar      1 <0>        -0.1229
      3 C3          2.3773    1.4107   -0.0130 C.ar      1 <0>        -0.0996
      4 C4          2.3960    0.0285   -0.0201 C.ar      1 <0>        -0.1020
      5 C5          1.2084   -0.6789   -0.0117 C.ar      1 <0>        -0.0994
      6 C6          0.0021   -0.0041    0.0020 C.ar      1 <0>        -0.1227
      7 C7          3.7112   -0.7071   -0.0376 C.3       1 <0>         0.1605
      8 N1          4.1518   -0.9524    1.3379 N.am      1 <0>        -0.7159
      9 C8          5.3108   -1.6005    1.5688 C.2       1 <0>         0.5789
     10 O1          5.9902   -1.9813    0.6360 O.2       1 <0>        -0.5246
     11 C9          5.7562   -1.8484    2.9593 C.ar      1 <0>         0.0863
     12 C10         6.9590   -2.5144    3.2113 C.ar      1 <0>        -0.0303
     13 C11         7.3348   -2.7238    4.5480 C.ar      1 <0>         0.4225
     14 N2          6.5432   -2.2867    5.5137 N.ar      1 <0>        -0.5807
     15 C12         5.4076   -1.6579    5.2339 C.ar      1 <0>         0.3668
     16 N3          5.0191   -1.4352    3.9902 N.ar      1 <0>        -0.5677
     17 C13         4.5525   -1.1859    6.3502 C.ar      1 <0>        -0.0178
     18 C14         3.3531   -0.5284    6.0829 C.ar      1 <0>        -0.0803
     19 C15         2.5615   -0.0913    7.1255 C.ar      1 <0>        -0.1364
     20 C16         2.9568   -0.3044    8.4338 C.ar      1 <0>        -0.1185
     21 C17         4.1462   -0.9564    8.7051 C.ar      1 <0>        -0.1339
     22 C18         4.9427   -1.4033    7.6704 C.ar      1 <0>        -0.0755
     23 O2          8.4919   -3.3650    4.8446 O.3       1 <0>        -0.6740
     24 O3          7.7425   -2.9474    2.1914 O.3       1 <0>        -0.4625
     25 H1         -0.9591    1.9053    0.0259 H         1 <0>         0.1206
     26 H2          1.1563    3.1654    0.0076 H         1 <0>         0.1222
     27 H3          3.3051    1.9634   -0.0196 H         1 <0>         0.1239
     28 H4          1.2231   -1.7588   -0.0176 H         1 <0>         0.1242
     29 H5         -0.9258   -0.5567    0.0082 H         1 <0>         0.1223
     30 H6          3.5884   -1.6586   -0.5549 H         1 <0>         0.0740
     31 H7          4.4573   -0.1052   -0.5563 H         1 <0>         0.0738
     32 H8          3.6095   -0.6484    2.0824 H         1 <0>         0.4110
     33 H9          3.0439   -0.3609    5.0617 H         1 <0>         0.1323
     34 H10         1.6319    0.4183    6.9195 H         1 <0>         0.1190
     35 H11         2.3346    0.0400    9.2467 H         1 <0>         0.1160
     36 H12         4.4500   -1.1200    9.7285 H         1 <0>         0.1203
     37 H13         5.8690   -1.9162    7.8833 H         1 <0>         0.1379
     38 H14         8.3974   -2.3000    1.8963 H         1 <0>         0.3682
@<TRIPOS>BOND
     1    1    6 ar
     2    1    2 ar
     3    1   25 1
     4    2    3 ar
     5    2   26 1
     6    3    4 ar
     7    3   27 1
     8    4    5 ar
     9    4    7 1
    10    5    6 ar
    11    5   28 1
    12    6   29 1
    13    7    8 1
    14    7   30 1
    15    7   31 1
    16    8    9 am
    17    8   32 1
    18    9   10 2
    19    9   11 1
    20   11   16 ar
    21   11   12 ar
    22   12   24 1
    23   12   13 ar
    24   13   23 1
    25   13   14 ar
    26   14   15 ar
    27   15   17 1
    28   15   16 ar
    29   17   22 ar
    30   17   18 ar
    31   18   19 ar
    32   18   33 1
    33   19   20 ar
    34   19   34 1
    35   20   21 ar
    36   20   35 1
    37   21   22 ar
    38   21   36 1
    39   22   37 1
    40   24   38 1
@<TRIPOS>MOLECULE
CHEMBL472863
   49    50     0     0     0
SMALL
USER_CHARGES

@<TRIPOS>ATOM
      1 C1         -0.0169    1.3949    0.0097 C.ar      1 <0>        -0.0956
      2 C2          1.1672    2.0996    0.0022 C.ar      1 <0>        -0.1299
      3 C3          2.3804    1.4251   -0.0130 C.ar      1 <0>         0.0856
      4 C4          2.4076    0.0306   -0.0212 C.ar      1 <0>         0.0787
      5 C5          1.2261   -0.6834   -0.0138 C.ar      1 <0>        -0.1087
      6 C6          0.0021   -0.0041    0.0020 C.ar      1 <0>        -0.0576
      7 C7         -1.2596   -0.7584    0.0105 C.2       1 <0>        -0.0350
      8 C8         -2.4387   -0.1015    0.0257 C.2       1 <0>        -0.1913
      9 C9         -3.6939   -0.8520    0.0342 C.2       1 <0>         0.5401
     10 O1         -3.6754   -2.0690    0.0275 O.2       1 <0>        -0.5451
     11 N1         -4.8712   -0.1960    0.0494 N.am      1 <0>        -0.7169
     12 C10        -6.1285   -0.9478    0.0578 C.3       1 <0>         0.1404
     13 C11        -7.3064    0.0285    0.0748 C.3       1 <0>         0.0093
     14 C12        -8.5951   -0.7414    0.2073 C.2       1 <0>         0.4940
     15 O2         -8.8243   -1.3763    1.2226 O.co2     1 <0>        -0.6803
     16 O3         -9.4086   -0.7292   -0.7008 O.co2     1 <0>        -0.6721
     17 O4         -7.3219    0.7774   -1.1422 O.3       1 <0>        -0.3247
     18 C13        -7.8245    2.0283   -1.0853 C.2       1 <0>         0.4959
     19 O5         -8.2383    2.4702   -0.0301 O.2       1 <0>        -0.5156
     20 C14        -7.8705    2.8277   -2.2553 C.2       1 <0>        -0.1702
     21 C15        -8.3737    4.0801   -2.1984 C.2       1 <0>        -0.0225
     22 C16        -8.4214    4.9087   -3.4112 C.ar      1 <0>        -0.0599
     23 C17        -7.9511    4.4002   -4.6276 C.ar      1 <0>        -0.0908
     24 C18        -7.9969    5.1790   -5.7627 C.ar      1 <0>        -0.1304
     25 C19        -8.5087    6.4686   -5.7043 C.ar      1 <0>         0.0878
     26 C20        -8.9791    6.9825   -4.4963 C.ar      1 <0>         0.0771
     27 C21        -8.9424    6.2067   -3.3545 C.ar      1 <0>        -0.1059
     28 O6         -9.4795    8.2459   -4.4438 O.3       1 <0>        -0.4874
     29 O7         -8.5508    7.2319   -6.8269 O.3       1 <0>        -0.4883
     30 O8          3.5985   -0.6260   -0.0370 O.3       1 <0>        -0.4872
     31 O9          3.5443    2.1251   -0.0204 O.3       1 <0>        -0.4879
     32 H1         -0.9592    1.9223    0.0260 H         1 <0>         0.1372
     33 H2          1.1513    3.1794    0.0078 H         1 <0>         0.1371
     34 H3          1.2460   -1.7632   -0.0205 H         1 <0>         0.1400
     35 H4         -1.2431   -1.8383    0.0045 H         1 <0>         0.1396
     36 H5         -2.4551    0.9784    0.0317 H         1 <0>         0.1293
     37 H6         -4.8860    0.7738    0.0547 H         1 <0>         0.3983
     38 H7         -6.1856   -1.5705   -0.8350 H         1 <0>         0.0784
     39 H8         -6.1679   -1.5801    0.9449 H         1 <0>         0.0968
     40 H9         -7.2016    0.7097    0.9193 H         1 <0>         0.0858
     41 H10        -7.5032    2.4354   -3.1921 H         1 <0>         0.1397
     42 H11        -8.7410    4.4724   -1.2616 H         1 <0>         0.1416
     43 H12        -7.5522    3.3978   -4.6760 H         1 <0>         0.1406
     44 H13        -7.6335    4.7858   -6.7007 H         1 <0>         0.1380
     45 H14        -9.3105    6.6020   -2.4193 H         1 <0>         0.1405
     46 H15       -10.4306    8.2996   -4.6100 H         1 <0>         0.3875
     47 H16        -9.3693    7.1412   -7.3337 H         1 <0>         0.3882
     48 H17         3.9519   -0.8209    0.8417 H         1 <0>         0.3875
     49 H18         3.8898    2.3231    0.8608 H         1 <0>         0.3878
@<TRIPOS>BOND
     1    1    6 ar
     2    1    2 ar
     3    1   32 1
     4    2    3 ar
     5    2   33 1
     6    3    4 ar
     7    3   31 1
     8    4    5 ar
     9    4   30 1
    10    5    6 ar
    11    5   34 1
    12    6    7 1
    13    7    8 2
    14    7   35 1
    15    8    9 1
    16    8   36 1
    17    9   10 2
    18    9   11 am
    19   11   12 1
    20   11   37 1
    21   12   13 1
    22   12   38 1
    23   12   39 1
    24   13   14 1
    25   13   17 1
    26   13   40 1
    27   14   15 2
    28   14   16 1
    29   17   18 1
    30   18   19 2
    31   18   20 1
    32   20   21 2
    33   20   41 1
    34   21   22 1
    35   21   42 1
    36   22   27 ar
    37   22   23 ar
    38   23   24 ar
    39   23   43 1
    40   24   25 ar
    41   24   44 1
    42   25   26 ar
    43   25   29 1
    44   26   27 ar
    45   26   28 1
    46   27   45 1
    47   28   46 1
    48   29   47 1
    49   30   48 1
    50   31   49 1
@<TRIPOS>MOLECULE
CHEMBL472863__1
   49    50     0     0     0
SMALL
USER_CHARGES

@<TRIPOS>ATOM
      1 C1         -0.0169    1.3949    0.0097 C.ar      1 <0>        -0.0959
      2 C2          1.1672    2.0996    0.0022 C.ar      1 <0>        -0.1301
      3 C3          2.3804    1.4251   -0.0130 C.ar      1 <0>         0.0854
      4 C4          2.4076    0.0306   -0.0212 C.ar      1 <0>         0.0789
      5 C5          1.2261   -0.6834   -0.0138 C.ar      1 <0>        -0.1087
      6 C6          0.0021   -0.0041    0.0020 C.ar      1 <0>        -0.0572
      7 C7         -1.2596   -0.7584    0.0105 C.2       1 <0>        -0.0353
      8 C8         -2.4387   -0.1015    0.0257 C.2       1 <0>        -0.1908
      9 C9         -3.6939   -0.8520    0.0342 C.2       1 <0>         0.5397
     10 O1         -3.6754   -2.0690    0.0275 O.2       1 <0>        -0.5449
     11 N1         -4.8712   -0.1960    0.0494 N.am      1 <0>        -0.7161
     12 C10        -6.1285   -0.9478    0.0578 C.3       1 <0>         0.1415
     13 C11        -7.3064    0.0285    0.0748 C.3       1 <0>         0.0092
     14 C12        -8.5998   -0.7449    0.0835 C.2       1 <0>         0.4936
     15 O2         -9.3425   -0.6798    1.0482 O.co2     1 <0>        -0.6718
     16 O3         -8.9036   -1.4355   -0.8742 O.co2     1 <0>        -0.6801
     17 O4         -7.2317    0.8448    1.2453 O.3       1 <0>        -0.3248
     18 C13        -7.7398    2.0916    1.1560 C.2       1 <0>         0.4954
     19 O5         -8.2329    2.4742    0.1118 O.2       1 <0>        -0.5148
     20 C14        -7.6991    2.9558    2.2793 C.2       1 <0>        -0.1700
     21 C15        -8.2079    4.2041    2.1899 C.2       1 <0>        -0.0226
     22 C16        -8.1656    5.0999    3.3542 C.ar      1 <0>        -0.0597
     23 C17        -7.5936    4.6637    4.5550 C.ar      1 <0>        -0.0910
     24 C18        -7.5554    5.5053    5.6446 C.ar      1 <0>        -0.1305
     25 C19        -8.0832    6.7868    5.5557 C.ar      1 <0>         0.0876
     26 C20        -8.6548    7.2287    4.3630 C.ar      1 <0>         0.0772
     27 C21        -8.6922    6.3937    3.2639 C.ar      1 <0>        -0.1059
     28 O6         -9.1705    8.4844    4.2807 O.3       1 <0>        -0.4864
     29 O7         -8.0430    7.6119    6.6338 O.3       1 <0>        -0.4875
     30 O8          3.5985   -0.6260   -0.0370 O.3       1 <0>        -0.4871
     31 O9          3.5443    2.1251   -0.0204 O.3       1 <0>        -0.4878
     32 H1         -0.9592    1.9223    0.0260 H         1 <0>         0.1371
     33 H2          1.1513    3.1794    0.0078 H         1 <0>         0.1369
     34 H3          1.2460   -1.7632   -0.0205 H         1 <0>         0.1401
     35 H4         -1.2431   -1.8383    0.0045 H         1 <0>         0.1397
     36 H5         -2.4551    0.9784    0.0317 H         1 <0>         0.1292
     37 H6         -4.8860    0.7738    0.0547 H         1 <0>         0.3984
     38 H7         -6.1856   -1.5705   -0.8350 H         1 <0>         0.0958
     39 H8         -6.1679   -1.5801    0.9449 H         1 <0>         0.0781
     40 H9         -7.2671    0.6607   -0.8123 H         1 <0>         0.0857
     41 H10        -7.2613    2.6162    3.2063 H         1 <0>         0.1397
     42 H11        -8.6456    4.5438    1.2629 H         1 <0>         0.1417
     43 H12        -7.1826    3.6676    4.6271 H         1 <0>         0.1406
     44 H13        -7.1141    5.1677    6.5707 H         1 <0>         0.1379
     45 H14        -9.1307    6.7365    2.3383 H         1 <0>         0.1406
     46 H15        -8.5337    9.1530    3.9934 H         1 <0>         0.3866
     47 H16        -7.2454    8.1563    6.6828 H         1 <0>         0.3873
     48 H17         3.9519   -0.8209    0.8417 H         1 <0>         0.3875
     49 H18         3.8898    2.3231    0.8608 H         1 <0>         0.3877
@<TRIPOS>BOND
     1    1    6 ar
     2    1    2 ar
     3    1   32 1
     4    2    3 ar
     5    2   33 1
     6    3    4 ar
     7    3   31 1
     8    4    5 ar
     9    4   30 1
    10    5    6 ar
    11    5   34 1
    12    6    7 1
    13    7    8 2
    14    7   35 1
    15    8    9 1
    16    8   36 1
    17    9   10 2
    18    9   11 am
    19   11   12 1
    20   11   37 1
    21   12   13 1
    22   12   38 1
    23   12   39 1
    24   13   14 1
    25   13   17 1
    26   13   40 1
    27   14   15 2
    28   14   16 1
    29   17   18 1
    30   18   19 2
    31   18   20 1
    32   20   21 2
    33   20   41 1
    34   21   22 1
    35   21   42 1
    36   22   27 ar
    37   22   23 ar
    38   23   24 ar
    39   23   43 1
    40   24   25 ar
    41   24   44 1
    42   25   26 ar
    43   25   29 1
    44   26   27 ar
    45   26   28 1
    46   27   45 1
    47   28   46 1
    48   29   47 1
    49   30   48 1
    50   31   49 1
@<TRIPOS>MOLECULE
CHEMBL87764
   57    59     0     0     0
SMALL
USER_CHARGES

@<TRIPOS>ATOM
      1 C1         -0.0167    1.3779    0.0096 C.ar      1 <0>        -0.1176
      2 C2          1.1711    2.0854    0.0021 C.ar      1 <0>        -0.0928
      3 C3          2.3773    1.4107   -0.0130 C.ar      1 <0>        -0.0770
      4 C4          2.3960    0.0283   -0.0201 C.ar      1 <0>        -0.0874
      5 C5          1.2086   -0.6790   -0.0117 C.ar      1 <0>        -0.0978
      6 C6          0.0021   -0.0041    0.0020 C.ar      1 <0>        -0.1225
      7 C7          3.7112   -0.7073   -0.0376 C.3       1 <0>         0.0996
      8 O1          3.4691   -2.1157   -0.0421 O.3       1 <0>        -0.3082
      9 C8          4.5581   -2.9289   -0.0575 C.ar      1 <0>         0.1182
     10 C9          4.3946   -4.3034   -0.0684 C.ar      1 <0>        -0.0974
     11 C10         5.5174   -5.1356   -0.0843 C.ar      1 <0>        -0.1223
     12 C11         6.7977   -4.5723   -0.0891 C.ar      1 <0>        -0.1115
     13 C12         6.9465   -3.2015   -0.0782 C.ar      1 <0>        -0.0899
     14 C13         5.8335   -2.3801   -0.0682 C.ar      1 <0>        -0.1838
     15 C14         5.3532   -6.5981   -0.0954 C.2       1 <0>         0.3852
     16 C15         6.5661   -7.4924   -0.1126 C.3       1 <0>        -0.2105
     17 C16         6.1273   -8.9340   -0.1214 C.2       1 <0>         0.2904
     18 O2          4.9509   -9.2072   -0.1145 O.2       1 <0>        -0.4225
     19 C17         7.1471  -10.0250   -0.1387 C.2       1 <0>         0.4704
     20 O3          6.7917  -11.1925   -0.1458 O.co2     1 <0>        -0.6554
     21 O4          8.3359   -9.7490   -0.1457 O.co2     1 <0>        -0.6685
     22 O5          4.2421   -7.0836   -0.0908 O.2       1 <0>        -0.4158
     23 C18         3.6720    2.1819   -0.0222 C.3       1 <0>         0.0990
     24 O6          3.3918    3.5832   -0.0129 O.3       1 <0>        -0.3127
     25 C19         4.4583    4.4257   -0.0195 C.ar      1 <0>         0.1044
     26 C20         4.2579    5.7955   -0.0054 C.ar      1 <0>        -0.1192
     27 C21         5.3561    6.6571   -0.0118 C.ar      1 <0>        -0.0640
     28 C22         6.6501    6.1307   -0.0325 C.ar      1 <0>        -0.1160
     29 C23         6.8377    4.7643   -0.0464 C.ar      1 <0>        -0.0996
     30 C24         5.7483    3.9120   -0.0347 C.ar      1 <0>        -0.2169
     31 C25         5.1507    8.1210    0.0027 C.2       1 <0>         0.3843
     32 C26         6.3080    9.0248   -0.0041 C.2       1 <0>        -0.4979
     33 C27         6.1201   10.3644    0.0092 C.2       1 <0>         0.2410
     34 O7          4.8655   10.8715    0.0288 O.3       1 <0>        -0.6579
     35 C28         7.2871   11.2758    0.0024 C.2       1 <0>         0.4897
     36 O8          8.4202   10.8178   -0.0153 O.co2     1 <0>        -0.7117
     37 O9          7.1173   12.4862    0.0144 O.co2     1 <0>        -0.7026
     38 O10         4.0232    8.5767    0.0203 O.2       1 <0>        -0.5166
     39 H1         -0.9591    1.9051    0.0259 H         1 <0>         0.1237
     40 H2          1.1565    3.1653    0.0076 H         1 <0>         0.1394
     41 H3          1.2233   -1.7589   -0.0179 H         1 <0>         0.1332
     42 H4         -0.9258   -0.5567    0.0079 H         1 <0>         0.1220
     43 H5          4.2698   -0.4318   -0.9321 H         1 <0>         0.0784
     44 H6          4.2884   -0.4407    0.8477 H         1 <0>         0.0783
     45 H7          3.4029   -4.7312   -0.0642 H         1 <0>         0.1400
     46 H8          7.6689   -5.2105   -0.1010 H         1 <0>         0.1388
     47 H9          7.9355   -2.7675   -0.0819 H         1 <0>         0.1329
     48 H10         5.9572   -1.3072   -0.0641 H         1 <0>         0.1316
     49 H11         7.1565   -7.2868   -1.0055 H         1 <0>         0.1271
     50 H12         4.2559    1.9223    0.8608 H         1 <0>         0.0732
     51 H13         4.2382    1.9306   -0.9191 H         1 <0>         0.0732
     52 H14         3.2550    6.1961    0.0102 H         1 <0>         0.1326
     53 H15         7.5030    6.7933   -0.0379 H         1 <0>         0.1392
     54 H16         7.8384    4.3586   -0.0628 H         1 <0>         0.1190
     55 H17         5.9015    2.8430   -0.0412 H         1 <0>         0.1152
     56 H18         7.3092    8.6201   -0.0197 H         1 <0>         0.0893
     57 H19         7.1705   -7.3020    0.7743 H         1 <0>         0.1271
@<TRIPOS>BOND
     1    1    6 ar
     2    1    2 ar
     3    1   39 1
     4    2    3 ar
     5    2   40 1
     6    3    4 ar
     7    3   23 1
     8    4    5 ar
     9    4    7 1
    10    5    6 ar
    11    5   41 1
    12    6   42 1
    13    7    8 1
    14    7   43 1
    15    7   44 1
    16    8    9 1
    17    9   14 ar
    18    9   10 ar
    19   10   11 ar
    20   10   45 1
    21   11   12 ar
    22   11   15 1
    23   12   13 ar
    24   12   46 1
    25   13   14 ar
    26   13   47 1
    27   14   48 1
    28   15   16 1
    29   15   22 2
    30   16   17 1
    31   16   49 1
    32   16   57 1
    33   17   18 2
    34   17   19 1
    35   19   20 2
    36   19   21 1
    37   23   24 1
    38   23   50 1
    39   23   51 1
    40   24   25 1
    41   25   30 ar
    42   25   26 ar
    43   26   27 ar
    44   26   52 1
    45   27   28 ar
    46   27   31 1
    47   28   29 ar
    48   28   53 1
    49   29   30 ar
    50   29   54 1
    51   30   55 1
    52   31   32 1
    53   31   38 2
    54   32   33 2
    55   32   56 1
    56   33   34 1
    57   33   35 1
    58   35   36 2
    59   35   37 1
@<TRIPOS>MOLECULE
CHEMBL86448
   57    59     0     0     0
SMALL
USER_CHARGES

@<TRIPOS>ATOM
      1 C1         -0.0167    1.3779    0.0096 C.ar      1 <0>        -0.1271
      2 C2          1.1711    2.0854    0.0021 C.ar      1 <0>        -0.0839
      3 C3          2.3773    1.4107   -0.0130 C.ar      1 <0>        -0.0899
      4 C4          2.3960    0.0283   -0.0201 C.ar      1 <0>        -0.0681
      5 C5          1.2086   -0.6790   -0.0117 C.ar      1 <0>        -0.1022
      6 C6          0.0021   -0.0041    0.0020 C.ar      1 <0>        -0.0888
      7 C7          1.2291   -2.1858   -0.0204 C.3       1 <0>         0.1047
      8 O1          1.2497   -2.6697    1.3240 O.3       1 <0>        -0.3040
      9 C8          1.2698   -4.0180    1.4943 C.ar      1 <0>         0.1193
     10 C9          1.2847   -4.5537    2.7706 C.ar      1 <0>        -0.0955
     11 C10         1.3054   -5.9408    2.9407 C.ar      1 <0>        -0.1176
     12 C11         1.3109   -6.7767    1.8192 C.ar      1 <0>        -0.1139
     13 C12         1.2959   -6.2301    0.5534 C.ar      1 <0>        -0.0937
     14 C13         1.2697   -4.8569    0.3879 C.ar      1 <0>        -0.1891
     15 C14         1.3218   -6.5193    4.2939 C.2       1 <0>         0.3802
     16 C15         1.3440   -8.0154    4.4735 C.3       1 <0>        -0.2083
     17 C16         1.3576   -8.3447    5.9441 C.2       1 <0>         0.2877
     18 O2          1.3500   -7.4561    6.7619 O.2       1 <0>        -0.4179
     19 C17         1.3805   -9.7699    6.3900 C.2       1 <0>         0.4714
     20 O3          1.3915  -10.0365    7.5810 O.co2     1 <0>        -0.6537
     21 O4          1.3882  -10.6679    5.5636 O.co2     1 <0>        -0.6718
     22 O5          1.3173   -5.7922    5.2642 O.2       1 <0>        -0.4082
     23 C18         3.6720    2.1819   -0.0222 C.3       1 <0>         0.1023
     24 O6          4.0945    2.4194    1.3220 O.3       1 <0>        -0.3104
     25 C19         5.2539    3.1081    1.4919 C.ar      1 <0>         0.1046
     26 C20         5.7237    3.3677    2.7680 C.ar      1 <0>        -0.1188
     27 C21         6.9151    4.0750    2.9378 C.ar      1 <0>        -0.0627
     28 C22         7.6251    4.5159    1.8182 C.ar      1 <0>        -0.1172
     29 C23         7.1474    4.2515    0.5516 C.ar      1 <0>        -0.1019
     30 C24         5.9693    3.5459    0.3853 C.ar      1 <0>        -0.2192
     31 C25         7.4235    4.3568    4.2970 C.2       1 <0>         0.3827
     32 C26         8.6772    5.1011    4.4724 C.2       1 <0>        -0.4986
     33 C27         9.1423    5.3589    5.7162 C.2       1 <0>         0.2401
     34 O7          8.4523    4.9310    6.7989 O.3       1 <0>        -0.6559
     35 C28        10.4065    6.1094    5.8930 C.2       1 <0>         0.4903
     36 O8         11.0296    6.4959    4.9151 O.co2     1 <0>        -0.7134
     37 O9         10.8268    6.3424    7.0169 O.co2     1 <0>        -0.7022
     38 O10         6.8033    3.9722    5.2700 O.2       1 <0>        -0.5131
     39 H1         -0.9591    1.9051    0.0259 H         1 <0>         0.1263
     40 H2          1.1565    3.1653    0.0076 H         1 <0>         0.1271
     41 H3          3.3385   -0.4989   -0.0326 H         1 <0>         0.1277
     42 H4         -0.9258   -0.5567    0.0079 H         1 <0>         0.1238
     43 H5          0.3388   -2.5583   -0.5270 H         1 <0>         0.0701
     44 H6          2.1185   -2.5341   -0.5456 H         1 <0>         0.0713
     45 H7          1.2807   -3.9021    3.6319 H         1 <0>         0.1428
     46 H8          1.3272   -7.8493    1.9446 H         1 <0>         0.1381
     47 H9          1.3002   -6.8764   -0.3119 H         1 <0>         0.1292
     48 H10         1.2536   -4.4355   -0.6064 H         1 <0>         0.1286
     49 H11         0.4573   -8.4500    4.0121 H         1 <0>         0.1251
     50 H12         4.4344    1.6057   -0.5463 H         1 <0>         0.0671
     51 H13         3.5236    3.1349   -0.5302 H         1 <0>         0.0673
     52 H14         5.1701    3.0244    3.6294 H         1 <0>         0.1334
     53 H15         8.5472    5.0638    1.9444 H         1 <0>         0.1387
     54 H16         7.6969    4.5932   -0.3131 H         1 <0>         0.1172
     55 H17         5.6026    3.3380   -0.6091 H         1 <0>         0.1150
     56 H18         9.2278    5.4426    3.6083 H         1 <0>         0.0886
     57 H19         2.2371   -8.4248    4.0013 H         1 <0>         0.1262
@<TRIPOS>BOND
     1    1    6 ar
     2    1    2 ar
     3    1   39 1
     4    2    3 ar
     5    2   40 1
     6    3    4 ar
     7    3   23 1
     8    4    5 ar
     9    4   41 1
    10    5    6 ar
    11    5    7 1
    12    6   42 1
    13    7    8 1
    14    7   43 1
    15    7   44 1
    16    8    9 1
    17    9   14 ar
    18    9   10 ar
    19   10   11 ar
    20   10   45 1
    21   11   12 ar
    22   11   15 1
    23   12   13 ar
    24   12   46 1
    25   13   14 ar
    26   13   47 1
    27   14   48 1
    28   15   16 1
    29   15   22 2
    30   16   17 1
    31   16   49 1
    32   16   57 1
    33   17   18 2
    34   17   19 1
    35   19   20 2
    36   19   21 1
    37   23   24 1
    38   23   50 1
    39   23   51 1
    40   24   25 1
    41   25   30 ar
    42   25   26 ar
    43   26   27 ar
    44   26   52 1
    45   27   28 ar
    46   27   31 1
    47   28   29 ar
    48   28   53 1
    49   29   30 ar
    50   29   54 1
    51   30   55 1
    52   31   32 1
    53   31   38 2
    54   32   33 2
    55   32   56 1
    56   33   34 1
    57   33   35 1
    58   35   36 2
    59   35   37 1
@<TRIPOS>MOLECULE
CHEMBL36070
   42    45     0     0     0
SMALL
USER_CHARGES

@<TRIPOS>ATOM
      1 C1          0.7045    0.4957   -1.3707 C.ar      1 <0>        -0.1243
      2 C2          1.7585    1.3593   -1.1380 C.ar      1 <0>        -0.1180
      3 C3          2.9909    0.8598   -0.7603 C.ar      1 <0>        -0.1153
      4 C4          3.1690   -0.5033   -0.6147 C.ar      1 <0>        -0.0761
      5 C5          2.1148   -1.3668   -0.8464 C.ar      1 <0>        -0.1135
      6 C6          0.8828   -0.8674   -1.2255 C.ar      1 <0>        -0.1187
      7 C7          4.5128   -1.0479   -0.2038 C.3       1 <0>        -0.0397
      8 C8          4.5821   -1.1330    1.2992 C.ar      1 <0>        -0.1007
      9 C9          5.0475   -0.0544    2.0311 C.ar      1 <0>        -0.0796
     10 C10         5.1140   -0.1237    3.4114 C.ar      1 <0>        -0.1374
     11 C11         4.7164   -1.2701    4.0676 C.ar      1 <0>        -0.0636
     12 C12         4.2458   -2.3622    3.3354 C.ar      1 <0>        -0.1625
     13 C13         4.1763   -2.2834    1.9425 C.ar      1 <0>        -0.0651
     14 C14         3.8184   -3.5937    4.0314 C.2       1 <0>         0.4499
     15 O1          3.7441   -3.6117    5.2450 O.2       1 <0>        -0.4255
     16 C15         3.4822   -4.8006    3.2544 C.ar      1 <0>         0.0096
     17 C16         3.0062   -5.9289    3.9181 C.ar      1 <0>         0.1680
     18 C17         2.6895   -7.0764    3.1539 C.ar      1 <0>         0.1177
     19 C18         2.8751   -7.0127    1.7505 C.ar      1 <0>        -0.1344
     20 C19         2.5667   -8.1414    0.9720 C.ar      1 <0>        -0.0411
     21 C20         2.0985   -9.2556    1.6117 C.ar      1 <0>        -0.1615
     22 C21         1.9400   -9.2488    2.9958 C.ar      1 <0>         0.1477
     23 N1          2.2300   -8.1921    3.7180 N.ar      1 <0>        -0.4570
     24 C22         3.3626   -5.8239    1.1757 C.ar      1 <0>         0.1461
     25 N2          3.6350   -4.7882    1.9264 N.ar      1 <0>        -0.4355
     26 O2          2.8508   -5.9275    5.2637 O.3       1 <0>        -0.4533
     27 H1         -0.2595    0.8862   -1.6614 H         1 <0>         0.1202
     28 H2          1.6193    2.4242   -1.2518 H         1 <0>         0.1212
     29 H3          3.8145    1.5344   -0.5792 H         1 <0>         0.1203
     30 H4          2.2541   -2.4318   -0.7330 H         1 <0>         0.1210
     31 H5          0.0592   -1.5421   -1.4070 H         1 <0>         0.1205
     32 H6          4.6480   -2.0417   -0.6306 H         1 <0>         0.0852
     33 H7          5.2994   -0.3864   -0.5669 H         1 <0>         0.0825
     34 H8          5.3604    0.8454    1.5224 H         1 <0>         0.1235
     35 H9          5.4785    0.7215    3.9763 H         1 <0>         0.1280
     36 H10         4.7692   -1.3230    5.1450 H         1 <0>         0.1307
     37 H11         3.8095   -3.1228    1.3704 H         1 <0>         0.1774
     38 H12         2.6953   -8.1290   -0.1002 H         1 <0>         0.1535
     39 H13         1.8514  -10.1405    1.0441 H         1 <0>         0.1491
     40 H14         1.5693  -10.1362    3.4871 H         1 <0>         0.1701
     41 H15         3.5080   -5.7650    0.1072 H         1 <0>         0.1788
     42 H16         1.9777   -5.6343    5.5585 H         1 <0>         0.4020
@<TRIPOS>BOND
     1    1    6 ar
     2    1    2 ar
     3    1   27 1
     4    2    3 ar
     5    2   28 1
     6    3    4 ar
     7    3   29 1
     8    4    5 ar
     9    4    7 1
    10    5    6 ar
    11    5   30 1
    12    6   31 1
    13    7    8 1
    14    7   32 1
    15    7   33 1
    16    8   13 ar
    17    8    9 ar
    18    9   10 ar
    19    9   34 1
    20   10   11 ar
    21   10   35 1
    22   11   12 ar
    23   11   36 1
    24   12   13 ar
    25   12   14 1
    26   13   37 1
    27   14   15 2
    28   14   16 1
    29   16   25 ar
    30   16   17 ar
    31   17   18 ar
    32   17   26 1
    33   18   23 ar
    34   18   19 ar
    35   19   20 ar
    36   19   24 ar
    37   20   21 ar
    38   20   38 1
    39   21   22 ar
    40   21   39 1
    41   22   23 ar
    42   22   40 1
    43   24   25 ar
    44   24   41 1
    45   26   42 1
@<TRIPOS>MOLECULE
CHEMBL209614
   31    32     0     0     0
SMALL
NO_CHARGES

@<TRIPOS>ATOM
      1 C1          0.6164    3.1064    0.0954 C.ar      1 <0>        -0.1241
      2 C2          1.9655    3.3986   -0.0902 C.ar      1 <0>        -0.0508
      3 C3          2.9068    2.4129   -0.0557 C.ar      1 <0>        -0.1417
      4 C4          2.5138    1.0887    0.1693 C.ar      1 <0>        -0.0013
      5 C5          1.1428    0.7878    0.3586 C.ar      1 <0>        -0.0781
      6 C6          0.1996    1.8292    0.3165 C.ar      1 <0>        -0.0553
      7 C7          0.7523   -0.5427    0.5852 C.ar      1 <0>         0.0010
      8 C8          1.6772   -1.5414    0.6247 C.ar      1 <0>        -0.1323
      9 C9          3.0304   -1.2938    0.4452 C.ar      1 <0>        -0.0082
     10 C10         3.4883   -0.0005    0.2151 C.ar      1 <0>        -0.0902
     11 C11         4.9217    0.2658    0.0237 C.2       1 <0>         0.3058
     12 O1          5.7955    0.0105    1.0223 O.3       1 <0>        -0.3890
     13 C12         5.3737    0.7755   -1.1736 C.2       1 <0>         0.0291
     14 C13         4.5020    0.8835   -2.2610 C.2       1 <0>         0.2841
     15 O2          3.3767    0.4291   -2.1854 O.2       1 <0>        -0.2675
     16 C14         4.9568    1.5630   -3.5268 C.3       1 <0>        -0.1752
     17 C15         3.8877    1.4299   -4.5805 C.2       1 <0>         0.3269
     18 O3          2.8240    0.9303   -4.3017 O.2       1 <0>        -0.3324
     19 C16         4.1434    1.9157   -5.9694 C.2       1 <0>         0.4853
     20 O4          3.2775    1.8079   -6.8227 O.co2     1 <0>        -0.5468
     21 O5          5.2183    2.4205   -6.2511 O.co2     1 <0>        -0.5713
     22 H1         -0.1095    3.9056    0.0681 H         1 <0>         0.1411
     23 H2          2.2701    4.4201   -0.2643 H         1 <0>         0.1409
     24 H3          3.9498    2.6526   -0.2015 H         1 <0>         0.1221
     25 H4         -0.8498    1.6174    0.4591 H         1 <0>         0.1453
     26 H5         -0.2923   -0.7757    0.7299 H         1 <0>         0.1505
     27 H6          1.3480   -2.5548    0.8010 H         1 <0>         0.1502
     28 H7          3.7343   -2.1120    0.4840 H         1 <0>         0.1492
     29 H8          6.4017    1.0918   -1.2722 H         1 <0>         0.2029
     30 H9          5.1404    2.6186   -3.3268 H         1 <0>         0.1629
     31 H10         5.8756    1.0951   -3.8804 H         1 <0>         0.1671
@<TRIPOS>BOND
     1    1    6 ar
     2    1    2 ar
     3    1   22 1
     4    2    3 ar
     5    2   23 1
     6    3    4 ar
     7    3   24 1
     8    4   10 ar
     9    4    5 ar
    10    5    6 ar
    11    5    7 ar
    12    6   25 1
    13    7    8 ar
    14    7   26 1
    15    8    9 ar
    16    8   27 1
    17    9   10 ar
    18    9   28 1
    19   10   11 1
    20   11   13 2
    21   11   12 1
    22   13   29 1
    23   13   14 1
    24   14   16 1
    25   14   15 2
    26   16   17 1
    27   16   30 1
    28   16   31 1
    29   17   18 2
    30   17   19 1
    31   19   20 2
    32   19   21 1
@<TRIPOS>MOLECULE
CHEMBL209614__1
   32    33     0     0     0
SMALL
USER_CHARGES

@<TRIPOS>ATOM
      1 C1         -0.0159    1.3571    0.0498 C.ar      1 <0>        -0.1166
      2 C2          1.1681    2.0904    0.0429 C.ar      1 <0>        -0.1133
      3 C3          2.3793    1.4647    0.0151 C.ar      1 <0>        -0.1139
      4 C4          2.4352    0.0669   -0.0067 C.ar      1 <0>        -0.0161
      5 C5          1.2334   -0.6823    0.0003 C.ar      1 <0>        -0.0653
      6 C6          0.0024   -0.0043    0.0290 C.ar      1 <0>        -0.1097
      7 C7          1.2938   -2.0859   -0.0207 C.ar      1 <0>        -0.0739
      8 C8          2.4934   -2.7304   -0.0476 C.ar      1 <0>        -0.1345
      9 C9          3.6959   -2.0393   -0.0554 C.ar      1 <0>        -0.0591
     10 C10         3.7120   -0.6470   -0.0363 C.ar      1 <0>        -0.1544
     11 C11         4.9811    0.0878   -0.0449 C.2       1 <0>         0.3886
     12 O1          4.9809    1.2979   -0.1314 O.2       1 <0>        -0.4058
     13 C12         6.2856   -0.6603    0.0536 C.3       1 <0>        -0.2182
     14 C13         7.4302    0.3195    0.0232 C.2       1 <0>         0.3352
     15 O2          7.2094    1.5032   -0.0690 O.2       1 <0>        -0.3835
     16 C14         8.8502   -0.1778    0.1078 C.3       1 <0>        -0.2131
     17 C15         9.7966    0.9939    0.0567 C.2       1 <0>         0.2880
     18 O3          9.3627    2.1169   -0.0385 O.2       1 <0>        -0.4208
     19 C16        11.2712    0.7663    0.1240 C.2       1 <0>         0.4689
     20 O4         12.0376    1.7151    0.0827 O.co2     1 <0>        -0.6523
     21 O5         11.7097   -0.3686    0.2202 O.co2     1 <0>        -0.6700
     22 H1         -0.9627    1.8759    0.0765 H         1 <0>         0.1228
     23 H2          1.1263    3.1695    0.0594 H         1 <0>         0.1251
     24 H3          3.2903    2.0448    0.0097 H         1 <0>         0.1612
     25 H4         -0.9236   -0.5600    0.0343 H         1 <0>         0.1273
     26 H5          0.3791   -2.6601   -0.0151 H         1 <0>         0.1288
     27 H6          2.5086   -3.8101   -0.0628 H         1 <0>         0.1295
     28 H7          4.6274   -2.5854   -0.0769 H         1 <0>         0.1375
     29 H8          6.3128   -1.2219    0.9875 H         1 <0>         0.1296
     30 H9          6.3741   -1.3486   -0.7869 H         1 <0>         0.1292
     31 H10         8.9909   -0.7179    1.0440 H         1 <0>         0.1242
     32 H11         9.0522   -0.8447   -0.7304 H         1 <0>         0.1242
@<TRIPOS>BOND
     1    1    6 ar
     2    1    2 ar
     3    1   22 1
     4    2    3 ar
     5    2   23 1
     6    3    4 ar
     7    3   24 1
     8    4   10 ar
     9    4    5 ar
    10    5    6 ar
    11    5    7 ar
    12    6   25 1
    13    7    8 ar
    14    7   26 1
    15    8    9 ar
    16    8   27 1
    17    9   10 ar
    18    9   28 1
    19   10   11 1
    20   11   12 2
    21   11   13 1
    22   13   14 1
    23   13   29 1
    24   13   30 1
    25   14   15 2
    26   14   16 1
    27   16   17 1
    28   16   31 1
    29   16   32 1
    30   17   18 2
    31   17   19 1
    32   19   20 2
    33   19   21 1
@<TRIPOS>MOLECULE
CHEMBL232801
   10    10     0     0     0
SMALL
USER_CHARGES

@<TRIPOS>ATOM
      1 C1         -0.0160    1.3295    0.0094 C.2       1 <0>         0.2313
      2 N1         -1.2556    1.7403    0.0177 N.2       1 <0>        -0.3285
      3 H1         -3.0373    0.5693    0.0196 H         1 <0>         0.4367
      4 N2         -2.0676    0.5947    0.0155 N.pl3     1 <0>        -0.5169
      5 C2         -1.2306   -0.4643    0.0056 C.2       1 <0>         0.5331
      6 N3          0.0021   -0.0041    0.0020 N.2       1 <0>        -0.5878
      7 N4         -1.6026   -1.7966    0.0009 N.pl3     1 <0>        -0.8257
      8 H2          0.8552    1.9677    0.0045 H         1 <0>         0.2193
      9 H3         -2.5421   -2.0378    0.0048 H         1 <0>         0.4129
     10 H4         -0.9240   -2.4896   -0.0063 H         1 <0>         0.4256
@<TRIPOS>BOND
     1    1    6 1
     2    1    8 1
     3    1    2 2
     4    2    4 1
     5    3    4 1
     6    4    5 1
     7    5    7 1
     8    5    6 2
     9    7    9 1
    10    7   10 1
