@<TRIPOS>MOLECULE
ZINC06184368
   42    46     0     0     0
SMALL
USER_CHARGES
4-bromo-N-(dioxoBLAHyl)-1,5-dimethyl-pyrazole-3-carboxamide
@<TRIPOS>ATOM
      1 C1          1.1959    1.6568    9.3771 C.3       1 <0>        -0.0929
      2 C2          1.0859    1.1745    7.9536 C.2       1 <0>         0.0566
      3 C3          1.1194    1.9433    6.8390 C.2       1 <0>        -0.1562
      4 C4          0.9802    1.0446    5.7546 C.2       1 <0>         0.0170
      5 N1          0.8697   -0.1652    6.2662 N.2       1 <0>        -0.2461
      6 N2          0.9349   -0.1108    7.5481 N.pl3     1 <0>        -0.2717
      7 C5          0.8522   -1.2683    8.4422 C.3       1 <0>         0.0817
      8 C6          0.9568    1.3965    4.3205 C.2       1 <0>         0.6083
      9 O1          1.0635    2.5580    3.9779 O.2       1 <0>        -0.4828
     10 N3          0.8171    0.4300    3.3917 N.am      1 <0>        -0.5141
     11 N4          0.7949    0.7638    2.0312 N.am      1 <0>        -0.4129
     12 C7         -0.2887    1.3514    1.3984 C.2       1 <0>         0.5792
     13 O2         -1.2287    1.9395    1.8884 O.2       1 <0>        -0.4330
     14 C8         -0.0127    1.0858    0.0080 C.3       1 <0>        -0.1541
     15 H1          0.0021   -0.0041    0.0020 H         1 <0>         0.1086
     16 C9         -0.4092    1.3753   -1.3868 C.3       1 <0>         0.0113
     17 H2         -1.4704    1.2688   -1.6116 H         1 <0>         0.1212
     18 C10         0.2712    2.6072   -1.9676 C.2       1 <0>        -0.1570
     19 C11         1.5782    2.4154   -2.0849 C.2       1 <0>        -0.1530
     20 C12         1.8783    1.0108   -1.4639 C.3       1 <0>        -0.0133
     21 H3          2.8419    0.5394   -1.6571 H         1 <0>         0.1290
     22 C13         1.5414    1.4172   -0.0050 C.3       1 <0>        -0.1233
     23 H4          1.7568    2.4684    0.1868 H         1 <0>         0.1456
     24 C14         1.8474    0.5463    1.1711 C.2       1 <0>         0.5535
     25 O3          2.8026   -0.1829    1.3307 O.2       1 <0>        -0.4470
     26 C15         0.5956    0.3179   -1.9907 C.3       1 <0>        -0.1410
     27 C16         0.3465   -1.1536   -2.0303 C.3       1 <0>        -0.1760
     28 C17         0.4331   -0.3291   -3.3260 C.3       1 <0>        -0.1422
     29 Br1         1.3125    3.8223    6.7504 Br        1 <0>         0.0210
     30 H5          0.2011    1.8791    9.7633 H         1 <0>         0.0902
     31 H6          1.6582    0.8819    9.9886 H         1 <0>         0.0799
     32 H7          1.8079    2.5582    9.4091 H         1 <0>         0.0943
     33 H8         -0.1896   -1.4491    8.7071 H         1 <0>         0.0930
     34 H9          1.2565   -2.1463    7.9384 H         1 <0>         0.1035
     35 H10         1.4280   -1.0710    9.3464 H         1 <0>         0.1022
     36 H11         0.7319   -0.4968    3.6651 H         1 <0>         0.4282
     37 H12        -0.2430    3.5159   -2.2436 H         1 <0>         0.1354
     38 H13         2.2945    3.0949   -2.5228 H         1 <0>         0.1463
     39 H14         1.1814   -1.8136   -1.7950 H         1 <0>         0.1027
     40 H15        -0.6372   -1.5077   -1.7219 H         1 <0>         0.1018
     41 H16        -0.4937   -0.1420   -3.8683 H         1 <0>         0.1042
     42 H17         1.3248   -0.4479   -3.9415 H         1 <0>         0.1021
@<TRIPOS>BOND
     1    1    2 1
     2    1   30 1
     3    1   31 1
     4    1   32 1
     5    2    6 1
     6    2    3 2
     7    3    4 1
     8    3   29 1
     9    4    5 2
    10    4    8 1
    11    5    6 1
    12    6    7 1
    13    7   33 1
    14    7   34 1
    15    7   35 1
    16    8    9 2
    17    8   10 am
    18   10   11 1
    19   10   36 1
    20   11   24 am
    21   11   12 am
    22   12   13 2
    23   12   14 1
    24   14   15 1
    25   14   22 1
    26   14   16 1
    27   16   17 1
    28   16   26 1
    29   16   18 1
    30   18   19 2
    31   18   37 1
    32   19   20 1
    33   19   38 1
    34   20   21 1
    35   20   22 1
    36   20   26 1
    37   22   23 1
    38   22   24 1
    39   24   25 2
    40   26   28 1
    41   26   27 1
    42   27   28 1
    43   27   39 1
    44   27   40 1
    45   28   41 1
    46   28   42 1
@<TRIPOS>MOLECULE
ZINC16058595
   52    55     0     0     0
SMALL
USER_CHARGES
N-(1-acetylindolin-5-yl)-2-[(1R)-2-acetyl-1H-isoquinolin-1-yl]acetamide
@<TRIPOS>ATOM
      1 C1          1.2050    0.4793    1.9562 C.3       1 <0>        -0.1700
      2 C2          0.3220    1.4149    1.1714 C.2       1 <0>         0.5206
      3 O1          0.7808    2.0454    0.2423 O.2       1 <0>        -0.5245
      4 N1         -0.9774    1.5512    1.5019 N.am      1 <0>        -0.5563
      5 C3         -1.6191    0.9275    2.6622 C.3       1 <0>         0.1006
      6 C4         -3.0875    1.3790    2.6053 C.3       1 <0>        -0.0862
      7 C5         -3.1698    2.2555    1.3757 C.ar      1 <0>        -0.1148
      8 C6         -1.9154    2.3110    0.7885 C.ar      1 <0>         0.1266
      9 C7         -1.7403    3.0672   -0.3718 C.ar      1 <0>        -0.1099
     10 C8         -2.8017    3.7495   -0.9258 C.ar      1 <0>        -0.1199
     11 C9         -4.0554    3.6895   -0.3322 C.ar      1 <0>         0.1289
     12 C10        -4.2344    2.9387    0.8220 C.ar      1 <0>        -0.0782
     13 N2         -5.1345    4.3826   -0.8953 N.am      1 <0>        -0.6743
     14 C11        -6.0953    4.8943   -0.1006 C.2       1 <0>         0.5015
     15 O2         -5.9793    4.8365    1.1054 O.2       1 <0>        -0.4852
     16 C12        -7.3137    5.5383   -0.7103 C.3       1 <0>        -0.1492
     17 C13        -8.2400    6.0327    0.4025 C.3       1 <0>         0.2011
     18 H1         -8.4758    5.2074    1.0743 H         1 <0>         0.1187
     19 C14        -9.5128    6.5703   -0.2022 C.ar      1 <0>        -0.1044
     20 C15       -10.5745    5.7329   -0.4652 C.ar      1 <0>        -0.1011
     21 C16       -11.7300    6.2398   -1.0348 C.ar      1 <0>        -0.1209
     22 C17       -11.8261    7.5855   -1.3434 C.ar      1 <0>        -0.1120
     23 C18       -10.7682    8.4403   -1.0781 C.ar      1 <0>        -0.1097
     24 C19        -9.6050    7.9345   -0.4983 C.ar      1 <0>        -0.0332
     25 C20        -8.4686    8.8231   -0.1883 C.2       1 <0>        -0.1764
     26 C21        -7.4907    8.3788    0.6099 C.2       1 <0>         0.0891
     27 N3         -7.5760    7.1033    1.1544 N.am      1 <0>        -0.5575
     28 C22        -7.0499    6.8503    2.3692 C.2       1 <0>         0.5154
     29 O3         -7.1251    5.7361    2.8425 O.2       1 <0>        -0.4839
     30 C23        -6.3684    7.9518    3.1395 C.3       1 <0>        -0.1729
     31 H2          0.6460    0.0739    2.7996 H         1 <0>         0.0802
     32 H3          1.5332   -0.3365    1.3121 H         1 <0>         0.1011
     33 H4          2.0745    1.0236    2.3246 H         1 <0>         0.1002
     34 H5         -1.1524    1.2743    3.5841 H         1 <0>         0.0857
     35 H6         -1.5545   -0.1583    2.5917 H         1 <0>         0.0863
     36 H7         -3.7465    0.5170    2.5024 H         1 <0>         0.0935
     37 H8         -3.3442    1.9505    3.4973 H         1 <0>         0.0949
     38 H9         -0.7675    3.1174   -0.8382 H         1 <0>         0.1420
     39 H10        -2.6579    4.3326   -1.8234 H         1 <0>         0.1306
     40 H11        -5.2078    2.8886    1.2871 H         1 <0>         0.1396
     41 H12        -5.1904    4.4943   -1.8573 H         1 <0>         0.4095
     42 H13        -7.0076    6.3814   -1.3296 H         1 <0>         0.1007
     43 H14        -7.8412    4.8087   -1.3248 H         1 <0>         0.1109
     44 H15       -10.5054    4.6817   -0.2275 H         1 <0>         0.1258
     45 H16       -12.5613    5.5814   -1.2393 H         1 <0>         0.1252
     46 H17       -12.7292    7.9714   -1.7927 H         1 <0>         0.1249
     47 H18       -10.8430    9.4907   -1.3177 H         1 <0>         0.1274
     48 H19        -8.4264    9.8203   -0.6010 H         1 <0>         0.1397
     49 H20        -6.6404    9.0076    0.8292 H         1 <0>         0.1514
     50 H21        -7.0997    8.4644    3.7644 H         1 <0>         0.0948
     51 H22        -5.5875    7.5254    3.7692 H         1 <0>         0.0943
     52 H23        -5.9250    8.6623    2.4419 H         1 <0>         0.0795
@<TRIPOS>BOND
     1    1    2 1
     2    1   31 1
     3    1   32 1
     4    1   33 1
     5    2    3 2
     6    2    4 am
     7    4    8 1
     8    4    5 1
     9    5    6 1
    10    5   34 1
    11    5   35 1
    12    6    7 1
    13    6   36 1
    14    6   37 1
    15    7   12 ar
    16    7    8 ar
    17    8    9 ar
    18    9   10 ar
    19    9   38 1
    20   10   11 ar
    21   10   39 1
    22   11   12 ar
    23   11   13 1
    24   12   40 1
    25   13   14 am
    26   13   41 1
    27   14   15 2
    28   14   16 1
    29   16   17 1
    30   16   42 1
    31   16   43 1
    32   17   18 1
    33   17   27 1
    34   17   19 1
    35   19   24 ar
    36   19   20 ar
    37   20   21 ar
    38   20   44 1
    39   21   22 ar
    40   21   45 1
    41   22   23 ar
    42   22   46 1
    43   23   24 ar
    44   23   47 1
    45   24   25 1
    46   25   26 2
    47   25   48 1
    48   26   27 1
    49   26   49 1
    50   27   28 am
    51   28   29 2
    52   28   30 1
    53   30   50 1
    54   30   51 1
    55   30   52 1
@<TRIPOS>MOLECULE
ZINC39237573
   27    28     0     0     0
SMALL
USER_CHARGES

@<TRIPOS>ATOM
      1 C1         -0.0188    1.5379    0.0105 C.3       1 <0>        -0.1091
      2 C2          1.4445    1.9186   -0.0014 C.2       1 <0>         0.0405
      3 N1          2.1607    0.8703   -0.0139 N.2       1 <0>        -0.1854
      4 N2          1.4396   -0.3220   -0.0134 N.am      1 <0>        -0.4771
      5 C3          0.0021   -0.0041    0.0020 C.3       1 <0>         0.2735
      6 C4         -0.6843   -0.5464   -1.2532 C.3       1 <0>         0.2425
      7 F1         -0.6513   -1.9449   -1.2355 F         1 <0>        -0.1738
      8 F2         -2.0138   -0.1117   -1.2825 F         1 <0>        -0.1803
      9 O1         -0.6166   -0.5232    1.1809 O.3       1 <0>        -0.5233
     10 C5          1.9700   -1.5610   -0.0255 C.2       1 <0>         0.5945
     11 O2          1.2431   -2.5320   -0.0242 O.2       1 <0>        -0.4581
     12 C6          3.4663   -1.7399   -0.0407 C.3       1 <0>        -0.0371
     13 H1          3.9333   -1.0138   -0.7062 H         1 <0>         0.1852
     14 C7          4.0352   -1.6258    1.3626 C.2       1 <0>        -0.1534
     15 C8          4.5895   -2.8218    1.5825 C.2       1 <0>         0.0070
     16 N3          4.4307   -3.6280    0.5110 N.2       1 <0>        -0.1493
     17 N4          3.8228   -3.1133   -0.4357 N.2       1 <0>        -0.1004
     18 I1          3.9674    0.0230    2.6533 I         1 <0>         0.0611
     19 C9          1.9732    3.3299    0.0003 C.3       1 <0>         0.3581
     20 F3          3.2002    3.3690   -0.6705 F         1 <0>        -0.1770
     21 F4          1.0610    4.1704   -0.6466 F         1 <0>        -0.1793
     22 H2         -0.5036    1.9092    0.9134 H         1 <0>         0.1417
     23 H3         -0.5207    1.9189   -0.8789 H         1 <0>         0.1347
     24 H4         -0.1633   -0.1819   -2.1385 H         1 <0>         0.1231
     25 H5         -0.6298   -1.4891    1.2254 H         1 <0>         0.4009
     26 H6          5.0957   -3.1050    2.4935 H         1 <0>         0.1936
     27 H7          2.1103    3.6652    1.0284 H         1 <0>         0.1473
@<TRIPOS>BOND
     1    1    5 1
     2    1    2 1
     3    1   22 1
     4    1   23 1
     5    2    3 2
     6    2   19 1
     7    3    4 1
     8    4    5 1
     9    4   10 am
    10    5    6 1
    11    5    9 1
    12    6    7 1
    13    6    8 1
    14    6   24 1
    15    9   25 1
    16   10   11 2
    17   10   12 1
    18   12   13 1
    19   12   17 1
    20   12   14 1
    21   14   15 2
    22   14   18 1
    23   15   16 1
    24   15   26 1
    25   16   17 2
    26   19   20 1
    27   19   21 1
    28   19   27 1
@<TRIPOS>MOLECULE
ZINC15726613
   53    55     0     0     0
SMALL
USER_CHARGES

@<TRIPOS>ATOM
      1 C1          0.2620    1.9967    1.7400 C.3       1 <0>        -0.1421
      2 C2          0.2077    0.4691    1.8067 C.3       1 <0>        -0.0982
      3 H1         -0.8089    0.1492    2.0356 H         1 <0>         0.1577
      4 C3          0.6326   -0.1089    0.4844 C.2       1 <0>         0.5269
      5 O1         -0.2289   -0.3863   -0.3231 O.2       1 <0>        -0.5032
      6 N1          1.9012   -0.3322    0.1519 N.am      1 <0>        -0.6547
      7 C4          3.0182   -0.0691    0.9402 C.ar      1 <0>         0.1411
      8 C5          4.2621    0.0800    0.3366 C.ar      1 <0>        -0.0410
      9 C6          5.3813    0.3366    1.1038 C.ar      1 <0>        -0.6306
     10 C7          5.2787    0.4478    2.4785 C.ar      1 <0>        -0.0295
     11 C8          4.0477    0.3041    3.0921 C.ar      1 <0>        -0.0773
     12 C9          2.9217    0.0491    2.3275 C.ar      1 <0>        -0.0783
     13 S1          1.3395   -0.1253    3.0999 S.3       1 <0>        -0.0642
     14 S2          6.9512    0.5232    0.3259 S.o2      1 <0>         2.4990
     15 O2          7.8957    0.1589    1.3231 O.2       1 <0>        -0.9233
     16 O3          6.8486   -0.2202   -0.8808 O.2       1 <0>        -0.9201
     17 C10         7.0821    2.2949   -0.0410 C.3       1 <0>        -0.6051
     18 C11         8.4211    2.5765   -0.7256 C.3       1 <0>        -0.1002
     19 H2          9.2333    2.2003   -0.1036 H         1 <0>         0.1096
     20 C12         8.4550    1.8777   -2.0863 C.3       1 <0>        -0.1656
     21 C13         8.5835    4.0621   -0.9195 C.2       1 <0>         0.5300
     22 O4          8.3079    4.5680   -1.9868 O.2       1 <0>        -0.5270
     23 N2          9.0351    4.8285    0.0929 N.am      1 <0>        -0.6109
     24 C14         9.4835    4.2177    1.3517 C.3       1 <0>         0.0952
     25 C15         8.7292    4.8720    2.5135 C.3       1 <0>        -0.1333
     26 C16         8.9181    6.3894    2.4488 C.3       1 <0>        -0.0939
     27 C17         8.3390    6.9217    1.1360 C.3       1 <0>        -0.1300
     28 C18         9.0942    6.2902   -0.0434 C.3       1 <0>         0.1092
     29 C19         8.1946    7.0437    3.6275 C.3       1 <0>        -0.1483
     30 H3          1.2792    2.3144    1.5110 H         1 <0>         0.0636
     31 H4         -0.4132    2.3506    0.9609 H         1 <0>         0.0810
     32 H5         -0.0413    2.4133    2.7005 H         1 <0>         0.0899
     33 H6          2.0636   -0.7155   -0.7242 H         1 <0>         0.4186
     34 H7          4.3533   -0.0056   -0.7361 H         1 <0>         0.1545
     35 H8          6.1588    0.6461    3.0721 H         1 <0>         0.1554
     36 H9          3.9648    0.3898    4.1655 H         1 <0>         0.1512
     37 H10         6.2670    2.5903   -0.7017 H         1 <0>         0.1476
     38 H11         7.0218    2.8635    0.8870 H         1 <0>         0.1408
     39 H12         9.3528    2.1781   -2.6267 H         1 <0>         0.0775
     40 H13         8.4634    0.7976   -1.9400 H         1 <0>         0.0811
     41 H14         7.5732    2.1597   -2.6616 H         1 <0>         0.0795
     42 H15         9.2720    3.1485    1.3348 H         1 <0>         0.0891
     43 H16        10.5546    4.3785    1.4748 H         1 <0>         0.0776
     44 H17         7.6682    4.6340    2.4384 H         1 <0>         0.0676
     45 H18         9.1208    4.4966    3.4589 H         1 <0>         0.0820
     46 H19         9.9810    6.6255    2.4991 H         1 <0>         0.0745
     47 H20         7.2817    6.6644    1.0739 H         1 <0>         0.0668
     48 H21         8.4529    8.0052    1.1011 H         1 <0>         0.0773
     49 H22        10.1341    6.6166   -0.0318 H         1 <0>         0.0704
     50 H23         8.6257    6.5890   -0.9811 H         1 <0>         0.0937
     51 H24         8.6077    6.6656    4.5626 H         1 <0>         0.0573
     52 H25         8.3290    8.1245    3.5816 H         1 <0>         0.0567
     53 H26         7.1317    6.8074    3.5780 H         1 <0>         0.0542
@<TRIPOS>BOND
     1    1    2 1
     2    1   30 1
     3    1   31 1
     4    1   32 1
     5    2    3 1
     6    2   13 1
     7    2    4 1
     8    4    5 2
     9    4    6 am
    10    6    7 1
    11    6   33 1
    12    7   12 ar
    13    7    8 ar
    14    8    9 ar
    15    8   34 1
    16    9   10 ar
    17    9   14 1
    18   10   11 ar
    19   10   35 1
    20   11   12 ar
    21   11   36 1
    22   12   13 1
    23   14   15 2
    24   14   16 2
    25   14   17 1
    26   17   18 1
    27   17   37 1
    28   17   38 1
    29   18   19 1
    30   18   20 1
    31   18   21 1
    32   20   39 1
    33   20   40 1
    34   20   41 1
    35   21   22 2
    36   21   23 am
    37   23   28 1
    38   23   24 1
    39   24   25 1
    40   24   42 1
    41   24   43 1
    42   25   26 1
    43   25   44 1
    44   25   45 1
    45   26   27 1
    46   26   29 1
    47   26   46 1
    48   27   28 1
    49   27   47 1
    50   27   48 1
    51   28   49 1
    52   28   50 1
    53   29   51 1
    54   29   52 1
    55   29   53 1
@<TRIPOS>MOLECULE
ZINC66445582
   41    43     0     0     0
SMALL
USER_CHARGES

@<TRIPOS>ATOM
      1 C1         -0.0165    1.5158   -0.0018 C.3       1 <0>        -0.1373
      2 C2          0.0035   -0.0141   -0.0000 C.3       1 <0>         0.1799
      3 C3         -1.4026   -0.6308    0.0375 C.3       1 <0>        -0.1087
      4 C4         -1.6208   -0.7385    1.5676 C.3       1 <0>        -0.1398
      5 C5         -0.2252   -0.8495    2.1361 C.2       1 <0>         0.5492
      6 O1          0.0313   -1.1306    3.2877 O.2       1 <0>        -0.5029
      7 N1          0.7035   -0.5911    1.1762 N.am      1 <0>        -0.6125
      8 C6          2.1436   -0.7922    0.9747 C.3       1 <0>         0.1405
      9 H1          2.4038   -1.7918    1.3225 H         1 <0>         0.1223
     10 C7          2.6215   -0.6441   -0.4892 C.3       1 <0>        -0.0727
     11 S1          0.9998   -0.7236   -1.3761 S.3       1 <0>        -0.2469
     12 C8          2.8871    0.2114    1.8179 C.2       1 <0>         0.5000
     13 O2          2.2729    0.9998    2.5050 O.2       1 <0>        -0.4889
     14 N2          4.2347    0.2327    1.8086 N.am      1 <0>        -0.6725
     15 C9          4.9236    1.2253    2.5144 C.ar      1 <0>         0.1265
     16 C10         4.4232    1.6950    3.7219 C.ar      1 <0>        -0.0548
     17 C11         5.1055    2.6746    4.4160 C.ar      1 <0>        -0.1174
     18 C12         6.2855    3.1884    3.9098 C.ar      1 <0>        -0.0233
     19 C13         6.7860    2.7232    2.7078 C.ar      1 <0>        -0.6392
     20 C14         6.1118    1.7387    2.0119 C.ar      1 <0>        -0.0395
     21 S2          8.2896    3.3814    2.0669 S.o2      1 <0>         2.4776
     22 O3          8.1964    3.1961    0.6611 O.2       1 <0>        -0.8878
     23 O4          8.3794    4.6867    2.6211 O.2       1 <0>        -0.8851
     24 C15         9.5921    2.3208    2.7518 C.3       1 <0>        -0.2101
     25 F1          9.5553    2.3803    4.1491 F         1 <0>        -0.1628
     26 F2          9.3859    1.0012    2.3356 F         1 <0>        -0.1645
     27 H2          1.0063    1.8925   -0.0112 H         1 <0>         0.0648
     28 H3         -0.5427    1.8712   -0.8877 H         1 <0>         0.0845
     29 H4         -0.5273    1.8736    0.8922 H         1 <0>         0.0757
     30 H5         -2.1367    0.0324   -0.4201 H         1 <0>         0.1037
     31 H6         -1.4149   -1.6140   -0.4330 H         1 <0>         0.1001
     32 H7         -2.1165    0.1555    1.9458 H         1 <0>         0.1142
     33 H8         -2.2023   -1.6285    1.8080 H         1 <0>         0.1165
     34 H9          3.1126    0.3158   -0.6492 H         1 <0>         0.1106
     35 H10         3.2707   -1.4705   -0.7782 H         1 <0>         0.1367
     36 H11         4.7270   -0.4400    1.3126 H         1 <0>         0.4154
     37 H12         3.5014    1.2948    4.1174 H         1 <0>         0.1499
     38 H13         4.7169    3.0403    5.3550 H         1 <0>         0.1429
     39 H14         6.8171    3.9547    4.4543 H         1 <0>         0.1487
     40 H15         6.5060    1.3721    1.0756 H         1 <0>         0.1491
     41 H16        10.5642    2.6654    2.3990 H         1 <0>         0.1577
@<TRIPOS>BOND
     1    1    2 1
     2    1   27 1
     3    1   28 1
     4    1   29 1
     5    2    7 1
     6    2   11 1
     7    2    3 1
     8    3    4 1
     9    3   30 1
    10    3   31 1
    11    4    5 1
    12    4   32 1
    13    4   33 1
    14    5    6 2
    15    5    7 am
    16    7    8 1
    17    8    9 1
    18    8   10 1
    19    8   12 1
    20   10   11 1
    21   10   34 1
    22   10   35 1
    23   12   13 2
    24   12   14 am
    25   14   15 1
    26   14   36 1
    27   15   20 ar
    28   15   16 ar
    29   16   17 ar
    30   16   37 1
    31   17   18 ar
    32   17   38 1
    33   18   19 ar
    34   18   39 1
    35   19   20 ar
    36   19   21 1
    37   20   40 1
    38   21   22 2
    39   21   23 2
    40   21   24 1
    41   24   25 1
    42   24   26 1
    43   24   41 1
@<TRIPOS>MOLECULE
ZINC11727969
   32    34     0     0     0
SMALL
USER_CHARGES
6-isopropoxy-3-(1H-tetrazol-5-yl)-1H-quinolin-2-one
@<TRIPOS>ATOM
      1 C1          0.7945   -5.1296   -1.3195 C.3       1 <0>        -0.1826
      2 C2          1.3171   -4.7757    0.0742 C.3       1 <0>         0.0749
      3 C3          1.5234   -6.0583    0.8824 C.3       1 <0>        -0.1474
      4 O1          2.5611   -4.0827   -0.0453 O.3       1 <0>        -0.3122
      5 C4          2.5023   -2.7404   -0.2536 C.ar      1 <0>         0.1001
      6 C5          3.6753   -1.9886   -0.2666 C.ar      1 <0>        -0.1069
      7 C6          3.6331   -0.6284   -0.4753 C.ar      1 <0>        -0.1241
      8 C7          2.4124    0.0105   -0.6770 C.ar      1 <0>         0.1424
      9 C8          1.2244   -0.7439   -0.6649 C.ar      1 <0>        -0.0594
     10 C9          1.2822   -2.1291   -0.4506 C.ar      1 <0>        -0.1596
     11 C10        -0.0241   -0.1047   -0.8690 C.2       1 <0>        -0.0583
     12 C11        -0.0546    1.2579   -1.0780 C.2       1 <0>        -0.0197
     13 C12         1.2039    2.0109   -1.0839 C.2       1 <0>         0.5341
     14 O2          1.1906    3.2150   -1.2675 O.2       1 <0>        -0.4910
     15 N1          2.3738    1.3748   -0.8870 N.am      1 <0>        -0.6328
     16 H1          3.2009    1.8816   -0.8930 H         1 <0>         0.4116
     17 C13        -1.3400    1.9505   -1.2996 C.2       1 <0>         0.1260
     18 N2         -2.9040    3.4505   -1.6689 N.2       1 <0>        -0.2091
     19 N3         -3.4379    2.2846   -1.5404 N.2       1 <0>        -0.1579
     20 N4         -2.5357    1.3970   -1.3239 N.2       1 <0>        -0.3965
     21 H2         -0.1544   -5.6582   -1.2284 H         1 <0>         0.0717
     22 H3          0.6475   -4.2158   -1.8953 H         1 <0>         0.0663
     23 H4          1.5180   -5.7669   -1.8279 H         1 <0>         0.0657
     24 H5          0.5935   -4.1384    0.5826 H         1 <0>         0.0758
     25 H6          1.8957   -5.8062    1.8753 H         1 <0>         0.0640
     26 H7          0.5746   -6.5869    0.9736 H         1 <0>         0.0758
     27 H8          2.2470   -6.6956    0.3741 H         1 <0>         0.0651
     28 H9          4.6259   -2.4770   -0.1112 H         1 <0>         0.1348
     29 H10         4.5488   -0.0558   -0.4829 H         1 <0>         0.1365
     30 H11         0.3746   -2.7144   -0.4404 H         1 <0>         0.1400
     31 H12        -0.9396   -0.6776   -0.8613 H         1 <0>         0.1484
     32 N5         -1.5369    3.2647   -1.5110 N.2       1 <0>        -0.3757
@<TRIPOS>BOND
     1    1    2 1
     2    1   21 1
     3    1   22 1
     4    1   23 1
     5    2    3 1
     6    2    4 1
     7    2   24 1
     8    3   25 1
     9    3   26 1
    10    3   27 1
    11    4    5 1
    12    5   10 ar
    13    5    6 ar
    14    6    7 ar
    15    6   28 1
    16    7    8 ar
    17    7   29 1
    18    8   15 1
    19    8    9 ar
    20    9   10 ar
    21    9   11 1
    22   10   30 1
    23   11   12 2
    24   11   31 1
    25   12   13 1
    26   12   17 1
    27   13   14 2
    28   13   15 am
    29   15   16 1
    30   17   20 2
    31   17   32 1
    32   18   19 2
    33   18   32 1
    34   19   20 1
@<TRIPOS>MOLECULE
ZINC37656162
   36    37     0     0     0
SMALL
USER_CHARGES

@<TRIPOS>ATOM
      1 C1         -0.0184    1.5028    0.0103 C.3       1 <0>        -0.0947
      2 C2          0.0021   -0.0041    0.0020 C.2       1 <0>        -0.1237
      3 C3          0.0059   -0.6843   -1.1741 C.2       1 <0>        -0.0262
      4 C4          0.0255   -2.0898   -1.1648 C.2       1 <0>        -0.2096
      5 C5          0.0406   -2.7649    0.0037 C.2       1 <0>         0.1255
      6 N1          0.0366   -2.0995    1.1930 N.pl3     1 <0>        -0.6255
      7 C6          0.0234   -0.7257    1.2189 C.2       1 <0>         0.5202
      8 N2          0.0256   -0.0847    2.3693 N.2       1 <0>        -1.0191
      9 S1          0.0506   -0.9343    3.7906 S.o2      1 <0>         2.7259
     10 O1         -1.1846   -1.6324    3.8682 O.2       1 <0>        -1.0099
     11 O2          1.3057   -1.5985    3.8446 O.2       1 <0>        -1.0089
     12 N3          0.0473    0.1722    5.0226 N.pl3     1 <0>        -0.9752
     13 C7          1.3097    0.6942    5.5634 C.3       1 <0>         0.1236
     14 C8          1.3182    0.4887    7.0815 C.3       1 <0>        -0.1063
     15 C9          0.0646    1.1256    7.6855 C.3       1 <0>        -0.1517
     16 C10        -1.1814    0.4459    7.1130 C.3       1 <0>        -0.1078
     17 C11        -1.2183    0.6552    5.5915 C.3       1 <0>         0.1252
     18 C12         0.0864    0.9551    9.1826 C.2       1 <0>         0.4970
     19 O3         -0.2819    1.8654    9.9053 O.co2     1 <0>        -0.7038
     20 O4          0.4722   -0.0932    9.6712 O.co2     1 <0>        -0.6970
     21 H1          1.0042    1.8801    0.0026 H         1 <0>         0.0732
     22 H2         -0.5455    1.8639   -0.8728 H         1 <0>         0.0671
     23 H3         -0.5286    1.8543    0.9071 H         1 <0>         0.0858
     24 H4         -0.0065   -0.1479   -2.1114 H         1 <0>         0.1457
     25 H5          0.0282   -2.6327   -2.0984 H         1 <0>         0.1525
     26 H6          0.0556   -3.8448   -0.0038 H         1 <0>         0.1722
     27 H7          2.1476    0.1583    5.1175 H         1 <0>         0.0825
     28 H8          1.3918    1.7575    5.3382 H         1 <0>         0.0654
     29 H9          1.3275   -0.5783    7.3041 H         1 <0>         0.0704
     30 H10         2.2055    0.9573    7.5071 H         1 <0>         0.0669
     31 H11         0.0433    2.1877    7.4415 H         1 <0>         0.0624
     32 H12        -1.1486   -0.6206    7.3353 H         1 <0>         0.0648
     33 H13        -2.0732    0.8842    7.5611 H         1 <0>         0.0701
     34 H14        -1.3382    1.7154    5.3685 H         1 <0>         0.0673
     35 H15        -2.0490    0.0936    5.1641 H         1 <0>         0.0832
     36 H16         0.0472   -2.5980    2.0251 H         1 <0>         0.4127
@<TRIPOS>BOND
     1    1    2 1
     2    1   21 1
     3    1   22 1
     4    1   23 1
     5    2    7 1
     6    2    3 2
     7    3    4 1
     8    3   24 1
     9    4    5 2
    10    4   25 1
    11    5    6 1
    12    5   26 1
    13    6    7 1
    14    6   36 1
    15    7    8 2
    16    8    9 1
    17    9   10 2
    18    9   11 2
    19    9   12 1
    20   12   17 1
    21   12   13 1
    22   13   14 1
    23   13   27 1
    24   13   28 1
    25   14   15 1
    26   14   29 1
    27   14   30 1
    28   15   16 1
    29   15   18 1
    30   15   31 1
    31   16   17 1
    32   16   32 1
    33   16   33 1
    34   17   34 1
    35   17   35 1
    36   18   19 2
    37   18   20 1
@<TRIPOS>MOLECULE
ZINC43428182
   42    43     0     0     0
SMALL
USER_CHARGES

@<TRIPOS>ATOM
      1 C1         -0.0265    1.5381    0.0411 C.3       1 <0>        -0.1219
      2 C2          1.4534    1.9998    0.0200 C.3       1 <0>        -0.1253
      3 C3          2.2695    0.7211   -0.1099 C.3       1 <0>         0.1212
      4 H1          2.3848    0.4596   -1.1618 H         1 <0>         0.0849
      5 C4          1.3784   -0.3354    0.6047 C.3       1 <0>         0.0623
      6 H2          1.3789   -0.1525    1.6793 H         1 <0>         0.0665
      7 C5          0.0007   -0.0163    0.0263 C.3       1 <0>        -0.1095
      8 O1          1.9455   -1.5989    0.3351 O.3       1 <0>        -0.3613
      9 C6          3.2197   -1.7467    0.9878 C.3       1 <0>         0.0478
     10 C7          4.2073   -0.6610    0.5639 C.3       1 <0>         0.0756
     11 N1          3.5630    0.6731    0.5574 N.am      1 <0>        -0.6235
     12 C8          4.1238    1.7542    1.1347 C.2       1 <0>         0.7011
     13 O2          3.5969    2.8439    1.0247 O.2       1 <0>        -0.5196
     14 N2          5.2690    1.6269    1.8339 N.am      1 <0>        -0.6959
     15 C9          5.8297    2.7080    2.4112 C.2       1 <0>         0.5140
     16 O3          5.3041    3.7950    2.3015 O.2       1 <0>        -0.4635
     17 C10         7.1102    2.5657    3.1931 C.3       1 <0>        -0.1357
     18 C11         7.5289    3.9323    3.7391 C.3       1 <0>        -0.1082
     19 C12         8.8289    3.7878    4.5328 C.3       1 <0>        -0.0921
     20 C13         9.2476    5.1543    5.0788 C.3       1 <0>        -0.1844
     21 C14        10.5281    5.0120    5.8607 C.2       1 <0>         0.4884
     22 O4         11.0567    3.9189    5.9710 O.co2     1 <0>        -0.7012
     23 O5         11.0354    5.9900    6.3829 O.co2     1 <0>        -0.7081
     24 H3         -0.5173    1.8953    0.9465 H         1 <0>         0.0708
     25 H4         -0.5479    1.9118   -0.8402 H         1 <0>         0.0732
     26 H5          1.6338    2.6518   -0.8346 H         1 <0>         0.0744
     27 H6          1.7021    2.5143    0.9481 H         1 <0>         0.1009
     28 H7         -0.7877   -0.4225    0.6599 H         1 <0>         0.0775
     29 H8         -0.0875   -0.3944   -0.9922 H         1 <0>         0.0795
     30 H9          3.0740   -1.6921    2.0666 H         1 <0>         0.0592
     31 H10         3.6358   -2.7224    0.7366 H         1 <0>         0.1120
     32 H11         5.0496   -0.6519    1.2557 H         1 <0>         0.0891
     33 H12         4.5707   -0.8785   -0.4404 H         1 <0>         0.0821
     34 H13         5.6895    0.7573    1.9217 H         1 <0>         0.4060
     35 H14         6.9548    1.8753    4.0221 H         1 <0>         0.0997
     36 H15         7.8933    2.1796    2.5406 H         1 <0>         0.0999
     37 H16         7.6843    4.6227    2.9100 H         1 <0>         0.0658
     38 H17         6.7458    4.3183    4.3915 H         1 <0>         0.0657
     39 H18         8.6735    3.0974    5.3619 H         1 <0>         0.0599
     40 H19         9.6120    3.4017    3.8804 H         1 <0>         0.0600
     41 H20         9.4030    5.8447    4.2498 H         1 <0>         0.0564
     42 H21         8.4645    5.5404    5.7313 H         1 <0>         0.0564
@<TRIPOS>BOND
     1    1    7 1
     2    1    2 1
     3    1   24 1
     4    1   25 1
     5    2    3 1
     6    2   26 1
     7    2   27 1
     8    3    4 1
     9    3   11 1
    10    3    5 1
    11    5    6 1
    12    5    7 1
    13    5    8 1
    14    7   28 1
    15    7   29 1
    16    8    9 1
    17    9   10 1
    18    9   30 1
    19    9   31 1
    20   10   11 1
    21   10   32 1
    22   10   33 1
    23   11   12 am
    24   12   13 2
    25   12   14 am
    26   14   15 am
    27   14   34 1
    28   15   16 2
    29   15   17 1
    30   17   18 1
    31   17   35 1
    32   17   36 1
    33   18   19 1
    34   18   37 1
    35   18   38 1
    36   19   20 1
    37   19   39 1
    38   19   40 1
    39   20   21 1
    40   20   41 1
    41   20   42 1
    42   21   22 2
    43   21   23 1
@<TRIPOS>MOLECULE
ZINC54303975
   39    40     0     0     0
SMALL
USER_CHARGES

@<TRIPOS>ATOM
      1 C1         -0.0288    1.5403    0.0030 C.3       1 <0>        -0.1661
      2 C2         -0.0037    0.0106   -0.0066 C.3       1 <0>         0.1396
      3 N1         -1.3767   -0.5004    0.0061 N.pl3     1 <0>        -0.3788
      4 C3         -1.9152   -1.3683   -0.8896 C.2       1 <0>        -0.0015
      5 C4         -3.2041   -1.5863   -0.5245 C.2       1 <0>         0.0342
      6 C5         -3.4586   -0.8287    0.6278 C.2       1 <0>         0.0545
      7 N2         -2.3650   -0.1854    0.9474 N.2       1 <0>        -0.2848
      8 N3         -4.1231   -2.4242   -1.1858 N.am      1 <0>        -0.6662
      9 C6         -5.3793   -2.5512   -0.7145 C.2       1 <0>         0.7055
     10 O1         -5.6930   -2.0172    0.3320 O.2       1 <0>        -0.5602
     11 N4         -6.2880   -3.2699   -1.4032 N.am      1 <0>        -0.6198
     12 C7         -5.8952   -4.0195   -2.6043 C.3       1 <0>         0.1116
     13 C8         -6.3360   -5.4775   -2.4417 C.3       1 <0>        -0.1330
     14 C9         -7.8348   -5.5219   -2.1353 C.3       1 <0>        -0.1182
     15 C10        -8.1110   -4.7846   -0.8229 C.3       1 <0>        -0.0761
     16 H1         -7.5415   -5.2490   -0.0179 H         1 <0>         0.0734
     17 C11        -7.6889   -3.3236   -0.9637 C.3       1 <0>         0.1304
     18 C12        -9.6048   -4.8584   -0.5003 C.3       1 <0>        -0.1786
     19 C13        -9.8581   -4.2400    0.8504 C.2       1 <0>         0.4859
     20 O2         -8.9299   -3.7827    1.4953 O.co2     1 <0>        -0.6838
     21 O3        -10.9912   -4.1971    1.2984 O.co2     1 <0>        -0.7088
     22 H2          0.9927    1.9205   -0.0064 H         1 <0>         0.0719
     23 H3         -0.5587    1.9006   -0.8787 H         1 <0>         0.0597
     24 H4         -0.5382    1.8897    0.9011 H         1 <0>         0.0712
     25 H5          0.5057   -0.3388   -0.9047 H         1 <0>         0.0916
     26 H6          0.5262   -0.3497    0.8751 H         1 <0>         0.0810
     27 H7         -1.4097   -1.8052   -1.7381 H         1 <0>         0.1716
     28 H8         -4.3957   -0.7873    1.1631 H         1 <0>         0.2093
     29 H9         -3.8517   -2.9098   -1.9804 H         1 <0>         0.4004
     30 H10        -6.3794   -3.5868   -3.4797 H         1 <0>         0.0673
     31 H11        -4.8126   -3.9763   -2.7242 H         1 <0>         0.0673
     32 H12        -6.1370   -6.0228   -3.3642 H         1 <0>         0.0687
     33 H13        -5.7833   -5.9354   -1.6214 H         1 <0>         0.0657
     34 H14        -8.3852   -5.0418   -2.9443 H         1 <0>         0.0586
     35 H15        -8.1561   -6.5595   -2.0434 H         1 <0>         0.0605
     36 H16        -7.7896   -2.8214   -0.0015 H         1 <0>         0.1296
     37 H17        -8.3227   -2.8329   -1.7024 H         1 <0>         0.0505
     38 H18       -10.1677   -4.3158   -1.2597 H         1 <0>         0.0567
     39 H19        -9.9227   -5.9009   -0.4880 H         1 <0>         0.0591
@<TRIPOS>BOND
     1    1    2 1
     2    1   22 1
     3    1   23 1
     4    1   24 1
     5    2    3 1
     6    2   25 1
     7    2   26 1
     8    3    7 1
     9    3    4 1
    10    4    5 2
    11    4   27 1
    12    5    6 1
    13    5    8 1
    14    6    7 2
    15    6   28 1
    16    8    9 am
    17    8   29 1
    18    9   10 2
    19    9   11 am
    20   11   17 1
    21   11   12 1
    22   12   13 1
    23   12   30 1
    24   12   31 1
    25   13   14 1
    26   13   32 1
    27   13   33 1
    28   14   15 1
    29   14   34 1
    30   14   35 1
    31   15   16 1
    32   15   17 1
    33   15   18 1
    34   17   36 1
    35   17   37 1
    36   18   19 1
    37   18   38 1
    38   18   39 1
    39   19   20 2
    40   19   21 1
@<TRIPOS>MOLECULE
ZINC62348931
   35    36     0     0     0
SMALL
USER_CHARGES

@<TRIPOS>ATOM
      1 C1          0.0681    1.5015    0.0719 C.3       1 <0>        -0.1001
      2 C2          0.0442   -0.0048    0.0315 C.ar      1 <0>        -0.0690
      3 C3         -0.1372   -0.6587   -1.1732 C.ar      1 <0>        -0.1792
      4 C4         -0.1610   -2.0477   -1.2193 C.ar      1 <0>         0.2431
      5 C5         -0.0020   -2.7829   -0.0547 C.ar      1 <0>        -0.2238
      6 C6          0.1816   -2.1230    1.1617 C.ar      1 <0>        -0.0677
      7 C7          0.2090   -0.7261    1.1957 C.ar      1 <0>        -0.1431
      8 C8          0.4124   -0.0079    2.5049 C.3       1 <0>        -0.0852
      9 C9          0.3511   -2.8975    2.4062 C.2       1 <0>         0.5267
     10 O1          1.2153   -3.7598    2.4769 O.co2     1 <0>        -0.6950
     11 O2         -0.3727   -2.6770    3.3670 O.co2     1 <0>        -0.6920
     12 N1         -0.3455   -2.7031   -2.4394 N.2       1 <0>        -1.0765
     13 S1         -0.3738   -4.3579   -2.4944 S.o2      1 <0>         2.5636
     14 O3          0.9302   -4.7984   -2.1413 O.2       1 <0>        -0.9969
     15 O4         -1.5346   -4.7681   -1.7848 O.2       1 <0>        -0.9887
     16 C10        -0.6228   -4.8191   -4.1766 C.2       1 <0>        -0.4598
     17 C11        -1.8131   -5.0077   -4.7776 C.2       1 <0>         0.1191
     18 N2         -1.5510   -5.3529   -6.0760 N.pl3     1 <0>        -0.4229
     19 C12        -0.2086   -5.3632   -6.2233 C.cat     1 <0>         0.2832
     20 N3          0.3398   -5.0381   -5.0846 N.pl3     1 <0>        -0.4189
     21 C13        -2.5416   -5.6547   -7.1122 C.3       1 <0>         0.0595
     22 H1          1.0902    1.8526   -0.0697 H         1 <0>         0.0562
     23 H2         -0.5651    1.8964   -0.7226 H         1 <0>         0.0529
     24 H3         -0.3036    1.8450    1.0373 H         1 <0>         0.0596
     25 H4         -0.2612   -0.0881   -2.0817 H         1 <0>         0.1045
     26 H5         -0.0205   -3.8622   -0.0883 H         1 <0>         0.0934
     27 H6         -0.5565    0.2119    2.9531 H         1 <0>         0.0539
     28 H7          0.9901   -0.6395    3.1798 H         1 <0>         0.0604
     29 H8          0.9509    0.9232    2.3286 H         1 <0>         0.0413
     30 H9         -2.7873   -4.9064   -4.3225 H         1 <0>         0.2349
     31 H10         0.3229   -5.5976   -7.1338 H         1 <0>         0.2635
     32 H11        -2.8090   -4.7378   -7.6373 H         1 <0>         0.1078
     33 H12        -2.1209   -6.3692   -7.8199 H         1 <0>         0.1107
     34 H13        -3.4318   -6.0819   -6.6505 H         1 <0>         0.1152
     35 H14         1.2932   -4.9678   -4.9203 H         1 <0>         0.4691
@<TRIPOS>BOND
     1    1    2 1
     2    1   22 1
     3    1   23 1
     4    1   24 1
     5    2    7 ar
     6    2    3 ar
     7    3    4 ar
     8    3   25 1
     9    4    5 ar
    10    4   12 1
    11    5    6 ar
    12    5   26 1
    13    6    7 ar
    14    6    9 1
    15    7    8 1
    16    8   27 1
    17    8   28 1
    18    8   29 1
    19    9   10 2
    20    9   11 1
    21   12   13 1
    22   13   14 2
    23   13   15 2
    24   13   16 1
    25   16   20 1
    26   16   17 2
    27   17   18 1
    28   17   30 1
    29   18   19 1
    30   18   21 1
    31   19   20 2
    32   19   31 1
    33   20   35 1
    34   21   32 1
    35   21   33 1
    36   21   34 1
@<TRIPOS>MOLECULE
ZINC01870271
   17    17     0     0     0
SMALL
USER_CHARGES
(2-bromo-5-nitro-phenyl)phosphonic acid
@<TRIPOS>ATOM
      1 C1          1.0272    6.1972    0.0254 C.ar      1 <0>        -0.0732
      2 C2          1.1025    5.5033    1.2186 C.ar      1 <0>        -0.1280
      3 C3          1.2304    4.1263    1.2106 C.ar      1 <0>        -0.0023
      4 C4          1.2830    3.4438    0.0083 C.ar      1 <0>        -0.5827
      5 C5          1.2133    4.1389   -1.1841 C.ar      1 <0>         0.0046
      6 C6          1.0797    5.5150   -1.1756 C.ar      1 <0>        -0.0693
      7 N1          0.9990    6.2584   -2.4528 N.pl3     1 <0>         0.0411
      8 O1          0.8863    7.4712   -2.4456 O.2       1 <0>        -0.1947
      9 O2          1.0453    5.6574   -3.5112 O.3       1 <0>        -0.1660
     10 P1          1.4507    1.6376   -0.0030 P.3       1 <0>         2.1762
     11 O3          2.2025    1.2045    1.1960 O.2       1 <0>        -1.1083
     12 Br1         1.3329    3.1764    2.8425 Br        1 <0>         0.0011
     13 H1          0.9276    7.2726    0.0315 H         1 <0>         0.1435
     14 H2          1.0618    6.0365    2.1569 H         1 <0>         0.1395
     15 H3          1.2588    3.6066   -2.1228 H         1 <0>         0.1582
     16 O4         -0.0110    0.9628    0.0073 O.3       1 <0>        -1.1660
     17 O5          2.2434    1.1805   -1.3277 O.3       1 <0>        -1.1738
@<TRIPOS>BOND
     1    1    6 ar
     2    1    2 ar
     3    1   13 1
     4    2    3 ar
     5    2   14 1
     6    3    4 ar
     7    3   12 1
     8    4    5 ar
     9    4   10 1
    10    5    6 ar
    11    5   15 1
    12    6    7 1
    13    7    8 2
    14    7    9 1
    15   10   11 2
    16   10   16 1
    17   10   17 1
@<TRIPOS>MOLECULE
ZINC22008124
   35    36     0     0     0
SMALL
USER_CHARGES
2,6-dimethyl-4-(3-nitrophenyl)-1,4-dihydropyridine-3,5-dicarboxylic acid
@<TRIPOS>ATOM
      1 C1          2.5465    6.5538    2.5400 C.3       1 <0>        -0.1039
      2 C2          1.8753    6.2235    1.2318 C.2       1 <0>         0.1020
      3 C3          0.6458    5.6801    1.2351 C.2       1 <0>        -0.1963
      4 C4         -0.0577    5.3262   -0.0444 C.3       1 <0>         0.0769
      5 C5          0.5959    6.0032   -1.2156 C.2       1 <0>        -0.2421
      6 C6          1.8270    6.5344   -1.1205 C.2       1 <0>         0.1514
      7 N1          2.5246    6.4808    0.0553 N.pl3     1 <0>        -0.6627
      8 C7          2.4466    7.1972   -2.3239 C.3       1 <0>        -0.0756
      9 C8         -0.0991    6.0832   -2.4445 C.2       1 <0>         0.4979
     10 O1          0.4180    6.6287   -3.4016 O.co2     1 <0>        -0.6573
     11 O2         -1.3359    5.5548   -2.5560 O.co2     1 <0>        -0.7680
     12 C9         -0.0065    3.8332   -0.2423 C.ar      1 <0>        -0.0097
     13 C10         1.2136    3.1901   -0.3387 C.ar      1 <0>        -0.0467
     14 C11         1.2606    1.8207   -0.5202 C.ar      1 <0>        -0.1289
     15 C12         0.0875    1.0939   -0.6044 C.ar      1 <0>        -0.0799
     16 C13        -1.1322    1.7374   -0.5128 C.ar      1 <0>        -0.0513
     17 C14        -1.1792    3.1066   -0.3269 C.ar      1 <0>        -0.0203
     18 N2         -2.3882    0.9601   -0.6090 N.pl3     1 <0>         0.0428
     19 O3         -2.3467   -0.2467   -0.7689 O.2       1 <0>        -0.1933
     20 O4         -3.4631    1.5272   -0.5283 O.3       1 <0>        -0.1677
     21 C15         0.0007    5.4358    2.4696 C.2       1 <0>         0.5091
     22 O5         -0.9136    6.1530    2.8308 O.co2     1 <0>        -0.6448
     23 O6          0.3991    4.4072    3.2472 O.co2     1 <0>        -0.7706
     24 H1          1.8814    6.2808    3.3725 H         1 <0>         0.0925
     25 H2          2.7607    7.6320    2.5802 H         1 <0>         0.0529
     26 H3          3.4873    5.9897    2.6221 H         1 <0>         0.0567
     27 H4         -1.1010    5.6685    0.0220 H         1 <0>         0.0841
     28 H5          3.6122    6.6457    0.0520 H         1 <0>         0.4090
     29 H6          3.4475    7.5707   -2.0620 H         1 <0>         0.0250
     30 H7          1.8142    8.0377   -2.6458 H         1 <0>         0.0844
     31 H8          2.5303    6.4669   -3.1422 H         1 <0>         0.0817
     32 H9          2.1300    3.7578   -0.2726 H         1 <0>         0.1297
     33 H10         2.2137    1.3184   -0.5959 H         1 <0>         0.1345
     34 H11         0.1243    0.0239   -0.7462 H         1 <0>         0.1396
     35 H12        -2.1322    3.6089   -0.2511 H         1 <0>         0.1488
@<TRIPOS>BOND
     1    1    2 1
     2    1   24 1
     3    1   25 1
     4    1   26 1
     5    2    7 1
     6    2    3 2
     7    3    4 1
     8    3   21 1
     9    4    5 1
    10    4   12 1
    11    4   27 1
    12    5    6 2
    13    5    9 1
    14    6    7 1
    15    6    8 1
    16    7   28 1
    17    8   29 1
    18    8   30 1
    19    8   31 1
    20    9   10 2
    21    9   11 1
    22   12   17 ar
    23   12   13 ar
    24   13   14 ar
    25   13   32 1
    26   14   15 ar
    27   14   33 1
    28   15   16 ar
    29   15   34 1
    30   16   17 ar
    31   16   18 1
    32   17   35 1
    33   18   19 2
    34   18   20 1
    35   21   22 2
    36   21   23 1
@<TRIPOS>MOLECULE
ZINC37464926
   26    27     0     0     0
SMALL
USER_CHARGES

@<TRIPOS>ATOM
      1 C1         -0.0167    1.3794    0.0096 C.ar      1 <0>        -0.1655
      2 C2          1.1664    2.0886    0.0021 C.ar      1 <0>        -0.0434
      3 C3          2.3855    1.4066   -0.0132 C.ar      1 <0>        -0.1618
      4 C4          2.3967    0.0093   -0.0208 C.ar      1 <0>         0.0158
      5 C5          1.2061   -0.6865   -0.0132 C.ar      1 <0>        -0.6400
      6 C6          0.0021   -0.0041    0.0020 C.ar      1 <0>        -0.0317
      7 S1          1.2177   -2.4484   -0.0228 S.o2      1 <0>         2.6145
      8 O1         -0.0302   -2.8598   -0.5639 O.2       1 <0>        -1.0147
      9 O2          2.4604   -2.8433   -0.5877 O.2       1 <0>        -1.0048
     10 N1          1.2360   -2.9465    1.5564 N.2       1 <0>        -1.0125
     11 C7          1.2478   -4.2976    1.8557 C.2       1 <0>         0.2702
     12 C8          1.2581   -4.8938    3.1087 C.2       1 <0>        -0.2716
     13 C9          1.2694   -6.3391    3.1363 C.2       1 <0>        -0.0482
     14 C10         1.2687   -6.9486    1.9367 C.2       1 <0>        -0.2704
     15 S2          1.2456   -5.5909    0.7869 S.3       1 <0>        -0.0099
     16 C11         1.2579   -4.1175    4.3121 C.1       1 <0>         0.3296
     17 N2          1.2578   -3.5017    5.2667 N.1       1 <0>        -0.5163
     18 C12         3.6552    2.1580   -0.0218 C.2       1 <0>         0.5253
     19 O3          3.6420    3.3809   -0.0155 O.co2     1 <0>        -0.6946
     20 O4          4.7207    1.5581   -0.0352 O.co2     1 <0>        -0.6822
     21 H1         -0.9599    1.9053    0.0260 H         1 <0>         0.1197
     22 H2          1.1503    3.1685    0.0078 H         1 <0>         0.1288
     23 H3          3.3355   -0.5245   -0.0330 H         1 <0>         0.1414
     24 H4         -0.9273   -0.5541    0.0083 H         1 <0>         0.1284
     25 H5          1.2782   -6.8950    4.0622 H         1 <0>         0.1253
     26 H6          1.2762   -8.0073    1.7231 H         1 <0>         0.1686
@<TRIPOS>BOND
     1    1    6 ar
     2    1    2 ar
     3    1   21 1
     4    2    3 ar
     5    2   22 1
     6    3    4 ar
     7    3   18 1
     8    4    5 ar
     9    4   23 1
    10    5    6 ar
    11    5    7 1
    12    6   24 1
    13    7    8 2
    14    7    9 2
    15    7   10 1
    16   10   11 1
    17   11   15 1
    18   11   12 2
    19   12   13 1
    20   12   16 1
    21   13   14 2
    22   13   25 1
    23   14   15 1
    24   14   26 1
    25   16   17 3
    26   18   19 2
    27   18   20 1
@<TRIPOS>MOLECULE
ZINC41125469
   33    34     0     0     0
SMALL
USER_CHARGES

@<TRIPOS>ATOM
      1 C1          3.5835    0.5111    0.0631 C.3       1 <0>        -0.0524
      2 C2          2.7975   -0.7745    0.0432 C.ar      1 <0>        -0.1054
      3 C3          2.6184   -1.4753   -1.1509 C.ar      1 <0>         0.4262
      4 O1          3.1470   -1.0127   -2.3099 O.3       1 <0>        -0.6913
      5 N1          1.9199   -2.6048   -1.1280 N.ar      1 <0>        -0.5806
      6 C4          1.4147   -3.0339    0.0202 C.ar      1 <0>         0.4896
      7 N2          1.5987   -2.3505    1.1402 N.ar      1 <0>        -0.2932
      8 N3          2.2743   -1.2551    1.1554 N.ar      1 <0>        -0.1780
      9 N4          0.6804   -4.2186    0.0493 N.pl3     1 <0>        -0.2132
     10 C5          0.1663   -4.8031    1.1783 C.2       1 <0>         0.0239
     11 C6         -0.4840   -5.9515    0.7552 C.2       1 <0>        -0.2370
     12 C7         -0.3146   -5.9832   -0.6313 C.2       1 <0>         0.0136
     13 N5          0.3767   -4.9275   -0.9778 N.2       1 <0>        -0.2772
     14 C8         -0.8409   -7.0431   -1.5643 C.3       1 <0>        -0.0144
     15 C9         -1.6842   -6.3860   -2.6589 C.3       1 <0>        -0.0908
     16 C10        -0.7918   -5.4930   -3.5231 C.3       1 <0>        -0.1555
     17 C11        -2.3201   -7.4695   -3.5322 C.3       1 <0>        -0.1414
     18 C12         0.2814   -4.3120    2.5557 C.2       1 <0>         0.5448
     19 O2          0.1955   -3.1132    2.7872 O.co2     1 <0>        -0.6216
     20 O3          0.4634   -5.1011    3.4736 O.co2     1 <0>        -0.6980
     21 H1          4.6355    0.2910    0.2445 H         1 <0>         0.0540
     22 H2          3.4783    1.0161   -0.8971 H         1 <0>         0.0668
     23 H3          3.2052    1.1561    0.8562 H         1 <0>         0.0552
     24 H4         -1.0096   -6.6695    1.3672 H         1 <0>         0.1462
     25 H5         -0.0049   -7.5743   -2.0194 H         1 <0>         0.0678
     26 H6         -1.4569   -7.7468   -1.0043 H         1 <0>         0.0717
     27 H7         -2.4677   -5.7824   -2.2008 H         1 <0>         0.0660
     28 H8         -1.3926   -5.0248   -4.3029 H         1 <0>         0.0370
     29 H9         -0.3388   -4.7211   -2.9009 H         1 <0>         0.0941
     30 H10        -0.0084   -6.0966   -3.9812 H         1 <0>         0.0455
     31 H11        -2.9559   -8.1057   -2.9165 H         1 <0>         0.0490
     32 H12        -2.9209   -7.0013   -4.3120 H         1 <0>         0.0479
     33 H13        -1.5367   -8.0731   -3.9903 H         1 <0>         0.0507
@<TRIPOS>BOND
     1    1    2 1
     2    1   21 1
     3    1   22 1
     4    1   23 1
     5    2    8 ar
     6    2    3 ar
     7    3    4 1
     8    3    5 ar
     9    5    6 ar
    10    6    7 ar
    11    6    9 1
    12    7    8 ar
    13    9   13 1
    14    9   10 1
    15   10   11 2
    16   10   18 1
    17   11   12 1
    18   11   24 1
    19   12   13 2
    20   12   14 1
    21   14   15 1
    22   14   25 1
    23   14   26 1
    24   15   16 1
    25   15   17 1
    26   15   27 1
    27   16   28 1
    28   16   29 1
    29   16   30 1
    30   17   31 1
    31   17   32 1
    32   17   33 1
    33   18   19 2
    34   18   20 1
@<TRIPOS>MOLECULE
ZINC33007201
   42    43     0     0     0
SMALL
USER_CHARGES

@<TRIPOS>ATOM
      1 C1         -0.4104    1.4861   -0.1835 C.3       1 <0>        -0.1376
      2 C2         -0.1730   -0.0221   -0.0844 C.3       1 <0>        -0.5990
      3 S1          0.5982   -0.6146   -1.6157 S.o2      1 <0>         2.4874
      4 O1         -0.3183   -0.5121   -2.6968 O.2       1 <0>        -1.0468
      5 O2          1.9164   -0.0969   -1.7319 O.2       1 <0>        -1.0470
      6 N1          0.8020   -2.2421   -1.3874 N.2       1 <0>        -1.0103
      7 C3          1.3776   -3.0173   -2.3870 C.ar      1 <0>         0.2738
      8 C4          1.7882   -2.4284   -3.5766 C.ar      1 <0>        -0.2524
      9 C5          2.3589   -3.1967   -4.5692 C.ar      1 <0>        -0.1308
     10 C6          2.5294   -4.5667   -4.3893 C.ar      1 <0>         0.0679
     11 C7          2.1271   -5.1695   -3.2118 C.ar      1 <0>        -0.1053
     12 C8          1.5516   -4.3978   -2.1959 C.ar      1 <0>        -0.1689
     13 C9          1.1265   -5.0297   -0.9381 C.2       1 <0>         0.5290
     14 O3          1.2798   -6.2327   -0.7754 O.co2     1 <0>        -0.7420
     15 O4          0.6195   -4.3524   -0.0540 O.co2     1 <0>        -0.6552
     16 N2          3.1098   -5.3368   -5.4045 N.pl3     1 <0>        -0.6340
     17 C10         3.6445   -4.6624   -6.5662 C.3       1 <0>         0.1472
     18 C11         2.5349   -4.5117   -7.6360 C.3       1 <0>        -0.1486
     19 C12         2.2203   -5.8185   -8.2333 C.3       1 <0>        -0.1017
     20 C13         1.6597   -6.8408   -7.2492 C.3       1 <0>        -0.1148
     21 C14         2.7997   -7.5396   -6.5503 C.3       1 <0>        -0.1277
     22 C15         3.1558   -6.8031   -5.2418 C.3       1 <0>         0.1301
     23 H1          0.5421    1.9950   -0.3310 H         1 <0>         0.0590
     24 H2         -1.0687    1.6957   -1.0266 H         1 <0>         0.0590
     25 H3         -0.8738    1.8422    0.7366 H         1 <0>         0.0602
     26 H4          0.4853   -0.2316    0.7587 H         1 <0>         0.1175
     27 H5         -1.1256   -0.5309    0.0631 H         1 <0>         0.1174
     28 H6          1.6596   -1.3663   -3.7243 H         1 <0>         0.0907
     29 H7          2.6753   -2.7330   -5.4918 H         1 <0>         0.0896
     30 H8          2.2604   -6.2324   -3.0747 H         1 <0>         0.1094
     31 H9          4.0074   -3.6758   -6.2782 H         1 <0>         0.0640
     32 H10         4.4683   -5.2459   -6.9774 H         1 <0>         0.0487
     33 H11         1.6383   -4.1025   -7.1705 H         1 <0>         0.0699
     34 H12         2.8760   -3.8311   -8.4161 H         1 <0>         0.0539
     35 H13         1.4911   -5.6686   -9.0295 H         1 <0>         0.0433
     36 H14         3.1302   -6.2256   -8.6743 H         1 <0>         0.0466
     37 H15         1.0378   -6.3328   -6.5121 H         1 <0>         0.0757
     38 H16         1.0597   -7.5737   -7.7886 H         1 <0>         0.0490
     39 H17         2.5088   -8.5647   -6.3205 H         1 <0>         0.0620
     40 H18         3.6718   -7.5513   -7.2041 H         1 <0>         0.0524
     41 H19         4.1591   -7.0933   -4.9297 H         1 <0>         0.0367
     42 H20         2.4474   -7.0956   -4.4667 H         1 <0>         0.0817
@<TRIPOS>BOND
     1    1    2 1
     2    1   23 1
     3    1   24 1
     4    1   25 1
     5    2    3 1
     6    2   26 1
     7    2   27 1
     8    3    4 2
     9    3    5 2
    10    3    6 1
    11    6    7 1
    12    7   12 ar
    13    7    8 ar
    14    8    9 ar
    15    8   28 1
    16    9   10 ar
    17    9   29 1
    18   10   11 ar
    19   10   16 1
    20   11   12 ar
    21   11   30 1
    22   12   13 1
    23   13   14 2
    24   13   15 1
    25   16   22 1
    26   16   17 1
    27   17   18 1
    28   17   31 1
    29   17   32 1
    30   18   19 1
    31   18   33 1
    32   18   34 1
    33   19   20 1
    34   19   35 1
    35   19   36 1
    36   20   21 1
    37   20   37 1
    38   20   38 1
    39   21   22 1
    40   21   39 1
    41   21   40 1
    42   22   41 1
    43   22   42 1
@<TRIPOS>MOLECULE
ZINC03913655
   28    29     0     0     0
SMALL
USER_CHARGES

@<TRIPOS>ATOM
      1 C1          1.2846    1.3660   -0.2016 C.3       1 <0>        -0.0892
      2 C2          0.9583   -0.1044   -0.1534 C.ar      1 <0>        -0.1773
      3 C3          1.5572   -0.9133    0.7949 C.ar      1 <0>        -0.1033
      4 C4          1.2606   -2.2614    0.8415 C.ar      1 <0>        -0.1475
      5 C5          0.3594   -2.8043   -0.0651 C.ar      1 <0>         0.2003
      6 C6         -0.2408   -1.9891   -1.0160 C.ar      1 <0>        -0.1692
      7 C7          0.0562   -0.6408   -1.0539 C.ar      1 <0>        -0.1046
      8 N1          0.0572   -4.1692   -0.0209 N.2       1 <0>        -0.6355
      9 C8          0.1751   -4.8570    1.1529 C.2       1 <0>         0.3755
     10 N2          0.1641   -4.1831    2.2776 N.2       1 <0>        -0.7195
     11 C9          0.1922   -4.6867    3.4877 C.2       1 <0>         0.5066
     12 O1          0.2674   -3.9119    4.4214 O.2       1 <0>        -0.5784
     13 C10         0.1377   -6.1506    3.7992 C.3       1 <0>        -0.1651
     14 C11         0.8883   -6.9653    2.7515 C.3       1 <0>        -0.1378
     15 H1          1.9572   -6.7703    2.8386 H         1 <0>         0.0820
     16 S1          0.3188   -6.5032    1.0929 S.3       1 <0>        -0.0304
     17 C12         0.6270   -8.4323    2.9764 C.2       1 <0>         0.5216
     18 O2         -0.2599   -8.9954    2.3577 O.co2     1 <0>        -0.6700
     19 O3          1.3025   -9.0562    3.7770 O.co2     1 <0>        -0.6914
     20 H2          0.5952    1.9125    0.4419 H         1 <0>         0.0488
     21 H3          2.3063    1.5230    0.1443 H         1 <0>         0.0490
     22 H4          1.1885    1.7261   -1.2259 H         1 <0>         0.0482
     23 H5          2.2579   -0.4905    1.4996 H         1 <0>         0.0963
     24 H6          1.7293   -2.8927    1.5819 H         1 <0>         0.1196
     25 H7         -0.9417   -2.4083   -1.7226 H         1 <0>         0.1048
     26 H8         -0.4134   -0.0055   -1.7902 H         1 <0>         0.0985
     27 H9          0.5872   -6.3249    4.7768 H         1 <0>         0.0858
     28 H10        -0.9035   -6.4722    3.8234 H         1 <0>         0.0822
@<TRIPOS>BOND
     1    1    2 1
     2    1   20 1
     3    1   21 1
     4    1   22 1
     5    2    7 ar
     6    2    3 ar
     7    3    4 ar
     8    3   23 1
     9    4    5 ar
    10    4   24 1
    11    5    6 ar
    12    5    8 1
    13    6    7 ar
    14    6   25 1
    15    7   26 1
    16    8    9 1
    17    9   16 1
    18    9   10 2
    19   10   11 1
    20   11   12 2
    21   11   13 1
    22   13   14 1
    23   13   27 1
    24   13   28 1
    25   14   15 1
    26   14   16 1
    27   14   17 1
    28   17   18 2
    29   17   19 1
@<TRIPOS>MOLECULE
ZINC06379734
   30    31     0     0     0
SMALL
USER_CHARGES

@<TRIPOS>ATOM
      1 C1          0.1038    1.5898   -0.0579 C.3       1 <0>        -0.0678
      2 C2          0.0790    0.0837   -0.0132 C.2       1 <0>         0.1141
      3 N1          0.1034   -0.6515    1.0687 N.2       1 <0>        -0.3658
      4 N2          0.0667   -1.9987    0.6872 N.pl3     1 <0>        -0.5389
      5 C3          0.0193   -2.0476   -0.6624 C.2       1 <0>         0.4269
      6 O1         -0.0266   -3.1714   -1.4228 O.3       1 <0>        -0.7251
      7 C4          0.0198   -0.7677   -1.1207 C.2       1 <0>        -0.4181
      8 C5         -0.0310   -0.3423   -2.5655 C.3       1 <0>         0.0793
      9 H1         -0.1562    0.7390   -2.6217 H         1 <0>         0.0893
     10 C6          1.2524   -0.7357   -3.2505 C.ar      1 <0>        -0.0350
     11 C7          1.5508   -2.0714   -3.4450 C.ar      1 <0>        -0.0988
     12 C8          2.7277   -2.4323   -4.0737 C.ar      1 <0>        -0.1129
     13 C9          3.6069   -1.4578   -4.5082 C.ar      1 <0>        -0.1283
     14 C10         3.3094   -0.1222   -4.3141 C.ar      1 <0>        -0.1046
     15 C11         2.1291    0.2396   -3.6896 C.ar      1 <0>        -0.0863
     16 Br1         1.7181    2.0671   -3.4301 Br        1 <0>        -0.0638
     17 C12        -1.2100   -1.0288   -3.2582 C.3       1 <0>         0.1074
     18 C13        -2.4636   -0.6445   -2.5891 C.1       1 <0>         0.2403
     19 N3         -3.4310   -0.3480   -2.0728 N.1       1 <0>        -0.4234
     20 C14        -1.2596   -0.6133   -4.6694 C.1       1 <0>         0.2193
     21 N4         -1.2979   -0.2926   -5.7585 N.1       1 <0>        -0.4185
     22 H2          1.1367    1.9349   -0.1046 H         1 <0>         0.0652
     23 H3         -0.4351    1.9361   -0.9398 H         1 <0>         0.0624
     24 H4         -0.3721    1.9878    0.8383 H         1 <0>         0.0578
     25 H5          0.8645   -2.8330   -3.1055 H         1 <0>         0.1768
     26 H6          2.9607   -3.4760   -4.2252 H         1 <0>         0.1214
     27 H7          4.5266   -1.7403   -4.9990 H         1 <0>         0.1204
     28 H8          3.9963    0.6390   -4.6535 H         1 <0>         0.1230
     29 H9         -1.0848   -2.1101   -3.2020 H         1 <0>         0.1710
     30 H10         0.0743   -2.7618    1.2860 H         1 <0>         0.4126
@<TRIPOS>BOND
     1    1    2 1
     2    1   22 1
     3    1   23 1
     4    1   24 1
     5    2    3 2
     6    2    7 1
     7    3    4 1
     8    4    5 1
     9    4   30 1
    10    5    7 2
    11    5    6 1
    12    7    8 1
    13    8    9 1
    14    8   10 1
    15    8   17 1
    16   10   15 ar
    17   10   11 ar
    18   11   12 ar
    19   11   25 1
    20   12   13 ar
    21   12   26 1
    22   13   14 ar
    23   13   27 1
    24   14   15 ar
    25   14   28 1
    26   15   16 1
    27   17   18 1
    28   17   20 1
    29   17   29 1
    30   18   19 3
    31   20   21 3
@<TRIPOS>MOLECULE
ZINC37794884
   35    36     0     0     0
SMALL
USER_CHARGES

@<TRIPOS>ATOM
      1 C1          0.0659    1.2558   -0.6264 C.ar      1 <0>        -0.0265
      2 C2          1.2491    1.9608   -0.6211 C.ar      1 <0>        -0.1348
      3 C3          2.3815    1.4178   -0.0240 C.ar      1 <0>         0.2424
      4 C4          2.3237    0.1604    0.5704 C.ar      1 <0>        -0.1474
      5 C5          1.1436   -0.5502    0.5688 C.ar      1 <0>        -0.0144
      6 C6          0.0036   -0.0068   -0.0307 C.ar      1 <0>        -0.0691
      7 C7         -1.2250   -0.7423   -0.0345 C.1       1 <0>         0.2664
      8 N1         -2.1997   -1.3258   -0.0375 N.1       1 <0>        -0.4292
      9 Br1         3.8670   -0.5733    1.3804 Br        1 <0>        -0.0407
     10 N2          3.5789    2.1350   -0.0211 N.am      1 <0>        -0.6807
     11 C8          3.5594    3.4793   -0.1159 C.2       1 <0>         0.5114
     12 O1          2.5019    4.0729   -0.1028 O.2       1 <0>        -0.4209
     13 C9          4.8518    4.2448   -0.2381 C.3       1 <0>        -0.0782
     14 H1          5.4727    4.0514    0.6365 H         1 <0>         0.0875
     15 C10         5.5930    3.7960   -1.4991 C.3       1 <0>        -0.1126
     16 C11         4.7214    4.0674   -2.7269 C.3       1 <0>        -0.1176
     17 C12         4.4205    5.5648   -2.8179 C.3       1 <0>        -0.1183
     18 C13         3.6793    6.0136   -1.5569 C.3       1 <0>        -0.1101
     19 C14         4.5509    5.7421   -0.3291 C.3       1 <0>        -0.1377
     20 H2          5.4856    6.2958   -0.4175 H         1 <0>         0.0655
     21 C15         3.8208    6.1842    0.9129 C.2       1 <0>         0.4922
     22 O2          4.0885    7.2561    1.4285 O.co2     1 <0>        -0.7102
     23 O3          2.9624    5.4698    1.4022 O.co2     1 <0>        -0.6678
     24 H3         -0.8142    1.6804   -1.0865 H         1 <0>         0.1401
     25 H4          1.2977    2.9364   -1.0817 H         1 <0>         0.1657
     26 H5          1.0992   -1.5258    1.0298 H         1 <0>         0.1413
     27 H6          4.4250    1.6659    0.0491 H         1 <0>         0.4076
     28 H7          6.5277    4.3497   -1.5876 H         1 <0>         0.0727
     29 H8          5.8074    2.7293   -1.4343 H         1 <0>         0.0585
     30 H9          5.2494    3.7477   -3.6253 H         1 <0>         0.0584
     31 H10         3.7866    3.5137   -2.6385 H         1 <0>         0.0574
     32 H11         5.3552    6.1185   -2.9063 H         1 <0>         0.0562
     33 H12         3.7995    5.7581   -3.6925 H         1 <0>         0.0544
     34 H13         3.4649    7.0803   -1.6217 H         1 <0>         0.0538
     35 H14         2.7445    5.4599   -1.4684 H         1 <0>         0.0846
@<TRIPOS>BOND
     1    1    6 ar
     2    1    2 ar
     3    1   24 1
     4    2    3 ar
     5    2   25 1
     6    3    4 ar
     7    3   10 1
     8    4    5 ar
     9    4    9 1
    10    5    6 ar
    11    5   26 1
    12    6    7 1
    13    7    8 3
    14   10   11 am
    15   10   27 1
    16   11   12 2
    17   11   13 1
    18   13   14 1
    19   13   19 1
    20   13   15 1
    21   15   16 1
    22   15   28 1
    23   15   29 1
    24   16   17 1
    25   16   30 1
    26   16   31 1
    27   17   18 1
    28   17   32 1
    29   17   33 1
    30   18   19 1
    31   18   34 1
    32   18   35 1
    33   19   20 1
    34   19   21 1
    35   21   22 2
    36   21   23 1
@<TRIPOS>MOLECULE
ZINC39850516
   48    50     0     0     0
SMALL
USER_CHARGES

@<TRIPOS>ATOM
      1 C1         -0.0311    1.5264    0.0203 C.3       1 <0>        -0.1215
      2 C2         -0.0078   -0.0034    0.0095 C.3       1 <0>        -0.0069
      3 C3         -1.3988   -0.7050    0.0738 C.3       1 <0>        -0.1088
      4 C4         -1.0895   -2.1387    0.5630 C.3       1 <0>        -0.1178
      5 C5          0.4603   -2.1648    0.7379 C.3       1 <0>        -0.0892
      6 C6          0.7219   -0.6922    1.2160 C.3       1 <0>        -0.0280
      7 C7          0.0374   -0.3905    2.5507 C.3       1 <0>        -0.1373
      8 C8          2.2141   -0.3562    1.2537 C.3       1 <0>        -0.1415
      9 C9          1.0139   -2.0856   -0.7180 C.3       1 <0>        -0.1045
     10 C10         0.7186   -0.6533   -1.1765 C.2       1 <0>         0.1454
     11 N1          0.9953   -0.1174   -2.3050 N.2       1 <0>        -0.3273
     12 O1          1.6759   -0.8654   -3.2961 O.3       1 <0>        -0.4121
     13 C11         1.0098   -3.2614    1.6135 C.2       1 <0>         0.5484
     14 O2          1.7222   -2.9857    2.5555 O.2       1 <0>        -0.5385
     15 N2          0.7095   -4.5485    1.3497 N.am      1 <0>        -0.5990
     16 C12        -0.0513   -4.9081    0.1453 C.3       1 <0>         0.0942
     17 C13         0.7317   -5.9695   -0.6339 C.3       1 <0>        -0.1075
     18 C14         1.0411   -7.1498    0.2897 C.3       1 <0>        -0.1544
     19 C15         1.9064   -6.6722    1.4582 C.3       1 <0>        -0.1066
     20 C16         1.1419   -5.6194    2.2580 C.3       1 <0>         0.1109
     21 C17         1.7818   -8.2110   -0.4826 C.2       1 <0>         0.4954
     22 O3          2.5779   -8.9366    0.0885 O.co2     1 <0>        -0.6983
     23 O4          1.5848   -8.3438   -1.6784 O.co2     1 <0>        -0.6995
     24 H1          0.9908    1.9054    0.0103 H         1 <0>         0.0632
     25 H2         -0.5613    1.8878   -0.8608 H         1 <0>         0.0649
     26 H3         -0.5395    1.8757    0.9190 H         1 <0>         0.0670
     27 H4         -2.0501   -0.1937    0.7827 H         1 <0>         0.0831
     28 H5         -1.8574   -0.7312   -0.9146 H         1 <0>         0.0718
     29 H6         -1.5833   -2.3307    1.5155 H         1 <0>         0.0777
     30 H7         -1.4007   -2.8706   -0.1824 H         1 <0>         0.0796
     31 H8         -0.9973   -0.7311    2.5135 H         1 <0>         0.0598
     32 H9          0.5619   -0.9088    3.3534 H         1 <0>         0.0711
     33 H10         0.0600    0.6834    2.7360 H         1 <0>         0.0584
     34 H11         2.3413    0.7194    1.3766 H         1 <0>         0.0564
     35 H12         2.6825   -0.8754    2.0898 H         1 <0>         0.0769
     36 H13         2.6815   -0.6731    0.3214 H         1 <0>         0.0514
     37 H14         2.0898   -2.2605   -0.7246 H         1 <0>         0.0889
     38 H15         0.5073   -2.8095   -1.3562 H         1 <0>         0.0958
     39 H16         1.8404   -0.3765   -4.1141 H         1 <0>         0.4003
     40 H17        -1.0232   -5.3090    0.4331 H         1 <0>         0.0661
     41 H18        -0.1882   -4.0243   -0.4778 H         1 <0>         0.0857
     42 H19         0.1351   -6.3149   -1.4782 H         1 <0>         0.0795
     43 H20         1.6642   -5.5388   -0.9988 H         1 <0>         0.0576
     44 H21         0.1091   -7.5645    0.6738 H         1 <0>         0.0633
     45 H22         2.1458   -7.5178    2.1030 H         1 <0>         0.0795
     46 H23         2.8278   -6.2350    1.0737 H         1 <0>         0.0567
     47 H24         1.7920   -5.2048    3.0284 H         1 <0>         0.0870
     48 H25         0.2695   -6.0795    2.7219 H         1 <0>         0.0628
@<TRIPOS>BOND
     1    1    2 1
     2    1   24 1
     3    1   25 1
     4    1   26 1
     5    2    6 1
     6    2   10 1
     7    2    3 1
     8    3    4 1
     9    3   27 1
    10    3   28 1
    11    4    5 1
    12    4   29 1
    13    4   30 1
    14    5    6 1
    15    5    9 1
    16    5   13 1
    17    6    7 1
    18    6    8 1
    19    7   31 1
    20    7   32 1
    21    7   33 1
    22    8   34 1
    23    8   35 1
    24    8   36 1
    25    9   10 1
    26    9   37 1
    27    9   38 1
    28   10   11 2
    29   11   12 1
    30   12   39 1
    31   13   14 2
    32   13   15 am
    33   15   20 1
    34   15   16 1
    35   16   17 1
    36   16   40 1
    37   16   41 1
    38   17   18 1
    39   17   42 1
    40   17   43 1
    41   18   19 1
    42   18   21 1
    43   18   44 1
    44   19   20 1
    45   19   45 1
    46   19   46 1
    47   20   47 1
    48   20   48 1
    49   21   22 2
    50   21   23 1
@<TRIPOS>MOLECULE
ZINC17054335
   31    33     0     0     0
SMALL
USER_CHARGES

@<TRIPOS>ATOM
      1 C1         -0.0184    1.5028    0.0103 C.3       1 <0>        -0.0649
      2 C2          0.0021   -0.0041    0.0020 C.2       1 <0>        -0.1852
      3 C3         -1.0423   -0.8566    0.0019 C.2       1 <0>        -0.1005
      4 C4         -0.7058   -2.2597   -0.0072 C.2       1 <0>        -0.1511
      5 C5          0.6335   -2.5786   -0.0147 C.2       1 <0>        -0.2103
      6 S1          1.4107   -1.0916   -0.0179 S.3       1 <0>         0.1772
      7 C6         -1.7458   -3.3013   -0.0078 C.2       1 <0>         0.5951
      8 O1         -2.9210   -2.9874   -0.0006 O.2       1 <0>        -0.5117
      9 N1         -1.3960   -4.6028   -0.0164 N.am      1 <0>        -0.5030
     10 N2         -2.3858   -5.5943   -0.0171 N.pl3     1 <0>        -0.2951
     11 C7         -2.6399   -6.2832    1.1177 C.2       1 <0>         0.5088
     12 O2         -1.9549   -6.0292    2.2467 O.3       1 <0>        -0.6043
     13 C8         -3.6407   -7.2735    1.0873 C.ar      1 <0>        -0.2373
     14 C9         -3.9652   -8.0319    2.2210 C.ar      1 <0>        -0.0082
     15 C10        -4.9431   -8.9788    2.1388 C.ar      1 <0>        -0.1927
     16 C11        -5.6234   -9.2027    0.9446 C.ar      1 <0>        -0.0548
     17 C12        -5.3329   -8.4832   -0.1768 C.ar      1 <0>        -0.1461
     18 C13        -4.3340   -7.5011   -0.1313 C.ar      1 <0>         0.2209
     19 N3         -4.0167   -6.7703   -1.2095 N.2       1 <0>        -0.5465
     20 C14        -3.0733   -5.8434   -1.1440 C.2       1 <0>         0.5074
     21 S2         -2.7117   -4.9339   -2.5487 S.2       1 <0>        -0.6879
     22 H1          1.0042    1.8801    0.0026 H         1 <0>         0.0714
     23 H2         -0.5455    1.8639   -0.8728 H         1 <0>         0.0794
     24 H3         -0.5286    1.8543    0.9071 H         1 <0>         0.0786
     25 H4         -2.0656   -0.5113    0.0086 H         1 <0>         0.1502
     26 H5          1.0814   -3.5612   -0.0220 H         1 <0>         0.1882
     27 H6         -0.4588   -4.8531   -0.0222 H         1 <0>         0.4167
     28 H7         -3.4443   -7.8675    3.1527 H         1 <0>         0.1293
     29 H8         -5.1931   -9.5633    3.0118 H         1 <0>         0.1210
     30 H9         -6.3935   -9.9590    0.9058 H         1 <0>         0.1231
     31 H10        -5.8701   -8.6689   -1.0951 H         1 <0>         0.1324
@<TRIPOS>BOND
     1    1    2 1
     2    1   22 1
     3    1   23 1
     4    1   24 1
     5    2    6 1
     6    2    3 2
     7    3    4 1
     8    3   25 1
     9    4    5 2
    10    4    7 1
    11    5    6 1
    12    5   26 1
    13    7    8 2
    14    7    9 am
    15    9   10 1
    16    9   27 1
    17   10   20 1
    18   10   11 1
    19   11   12 1
    20   11   13 2
    21   13   18 ar
    22   13   14 ar
    23   14   15 ar
    24   14   28 1
    25   15   16 ar
    26   15   29 1
    27   16   17 ar
    28   16   30 1
    29   17   18 ar
    30   17   31 1
    31   18   19 2
    32   19   20 1
    33   20   21 2
@<TRIPOS>MOLECULE
ZINC65520917
   40    42     0     0     0
SMALL
USER_CHARGES

@<TRIPOS>ATOM
      1 C1          0.1762    1.0804    0.0406 C.3       1 <0>        -0.1419
      2 C2         -0.1906   -0.4030    0.1188 C.3       1 <0>        -0.1046
      3 C3          0.3116   -0.9834    1.4424 C.3       1 <0>        -0.1448
      4 C4         -1.7106   -0.5575    0.0382 C.3       1 <0>         0.1422
      5 H1         -2.0877   -0.0524   -0.8510 H         1 <0>         0.0760
      6 C5         -2.0842   -2.0540   -0.0100 C.3       1 <0>        -0.1315
      7 C6         -3.3646   -2.1208    0.8638 C.3       1 <0>        -0.1359
      8 C7         -3.0536   -1.0638    1.9526 C.3       1 <0>         0.0896
      9 N1         -2.3356    0.0133    1.2403 N.am      1 <0>        -0.6078
     10 C8         -2.2631    1.3025    1.6266 C.2       1 <0>         0.5714
     11 O1         -1.7629    2.1300    0.8907 O.2       1 <0>        -0.5158
     12 C9         -2.7931    1.7106    2.9484 C.ar      1 <0>        -0.0765
     13 C10        -3.1578    0.7300    3.8841 C.ar      1 <0>        -0.1942
     14 C11        -3.6473    1.0799    5.1055 C.ar      1 <0>        -0.0143
     15 C12        -3.7913    2.4342    5.4388 C.ar      1 <0>        -0.2237
     16 C13        -3.4265    3.4366    4.5022 C.ar      1 <0>         0.2138
     17 C14        -2.9189    3.0563    3.2514 C.ar      1 <0>        -0.0754
     18 N2         -3.5700    4.7268    4.8366 N.2       1 <0>        -0.5507
     19 C15        -4.0454    5.0694    6.0241 C.2       1 <0>         0.5082
     20 N3         -4.4044    4.1598    6.9452 N.pl3     1 <0>        -0.6016
     21 H2         -4.7477    4.4569    7.8024 H         1 <0>         0.4201
     22 C16        -4.2943    2.8374    6.6941 C.2       1 <0>         0.5036
     23 O2         -4.6540    1.9281    7.6169 O.3       1 <0>        -0.6144
     24 S1         -4.2081    6.7318    6.3993 S.2       1 <0>        -0.7134
     25 H3          1.2208    1.1813   -0.2537 H         1 <0>         0.0350
     26 H4         -0.4582    1.5731   -0.6962 H         1 <0>         0.0645
     27 H5          0.0272    1.5434    1.0160 H         1 <0>         0.0704
     28 H6          0.2734   -0.9362   -0.7110 H         1 <0>         0.0738
     29 H7         -0.1523   -0.4501    2.2722 H         1 <0>         0.0564
     30 H8          0.0503   -2.0401    1.4982 H         1 <0>         0.0530
     31 H9          1.3945   -0.8733    1.4999 H         1 <0>         0.0520
     32 H10        -2.2984   -2.3653   -1.0324 H         1 <0>         0.0797
     33 H11        -1.2905   -2.6637    0.4217 H         1 <0>         0.0812
     34 H12        -4.2461   -1.8402    0.2873 H         1 <0>         0.0768
     35 H13        -3.4862   -3.1107    1.3036 H         1 <0>         0.0842
     36 H14        -3.9782   -0.6805    2.3843 H         1 <0>         0.0920
     37 H15        -2.4211   -1.4939    2.7292 H         1 <0>         0.0764
     38 H16        -3.0491   -0.3145    3.6321 H         1 <0>         0.1470
     39 H17        -3.9245    0.3155    5.8163 H         1 <0>         0.1343
     40 H18        -2.6322    3.8063    2.5291 H         1 <0>         0.1451
@<TRIPOS>BOND
     1    1    2 1
     2    1   25 1
     3    1   26 1
     4    1   27 1
     5    2    3 1
     6    2    4 1
     7    2   28 1
     8    3   29 1
     9    3   30 1
    10    3   31 1
    11    4    5 1
    12    4    9 1
    13    4    6 1
    14    6    7 1
    15    6   32 1
    16    6   33 1
    17    7    8 1
    18    7   34 1
    19    7   35 1
    20    8    9 1
    21    8   36 1
    22    8   37 1
    23    9   10 am
    24   10   11 2
    25   10   12 1
    26   12   17 ar
    27   12   13 ar
    28   13   14 ar
    29   13   38 1
    30   14   15 ar
    31   14   39 1
    32   15   22 2
    33   15   16 ar
    34   16   17 ar
    35   16   18 2
    36   17   40 1
    37   18   19 1
    38   19   20 1
    39   19   24 2
    40   20   21 1
    41   20   22 1
    42   22   23 1
@<TRIPOS>MOLECULE
ZINC36889369
   46    46     0     0     0
SMALL
USER_CHARGES

@<TRIPOS>ATOM
      1 C1         -0.6137    1.6451    0.8454 C.3       1 <0>        -0.1712
      2 C2         -0.4456    0.1468    0.5853 C.3       1 <0>        -0.0735
      3 H1          0.2001   -0.0015   -0.2803 H         1 <0>         0.0795
      4 C3          0.1849   -0.5162    1.8116 C.3       1 <0>        -0.1281
      5 C4          1.5821    0.0139    2.0064 C.2       1 <0>         0.5329
      6 O1          2.0295    0.8405    1.2399 O.2       1 <0>        -0.5276
      7 N1          2.3345   -0.4307    3.0325 N.am      1 <0>        -0.5871
      8 C5          1.9200   -1.4334    4.0305 C.3       1 <0>         0.0836
      9 C6          3.2448   -2.0378    4.5592 C.3       1 <0>         0.0699
     10 H2          3.1157   -2.4449    5.5620 H         1 <0>         0.0794
     11 C7          4.1693   -0.7919    4.5795 C.3       1 <0>        -0.1011
     12 C8          3.7068   -0.0006    3.3380 C.3       1 <0>         0.0715
     13 H3          4.3602   -0.2178    2.4931 H         1 <0>         0.0678
     14 C9          3.7262    1.4761    3.6383 C.2       1 <0>         0.4959
     15 O2          2.6783    2.0880    3.7561 O.co2     1 <0>        -0.6782
     16 O3          4.7899    2.0588    3.7633 O.co2     1 <0>        -0.7025
     17 O4          3.7459   -3.0339    3.6655 O.3       1 <0>        -0.3710
     18 C10         3.3020   -4.3590    3.9642 C.3       1 <0>         0.0299
     19 C11        -1.8145   -0.4804    0.3137 C.3       1 <0>        -0.1038
     20 C12        -2.2038   -0.2425   -1.1467 C.3       1 <0>        -0.0679
     21 C13        -1.2368   -0.9966   -2.0616 C.3       1 <0>        -0.1447
     22 C14        -3.6285   -0.7476   -1.3834 C.3       1 <0>        -0.1393
     23 C15        -2.1355    1.2544   -1.4553 C.3       1 <0>        -0.1481
     24 H4          0.3327    2.0626    1.1891 H         1 <0>         0.0803
     25 H5         -0.9167    2.1421   -0.0762 H         1 <0>         0.0671
     26 H6         -1.3768    1.7980    1.6085 H         1 <0>         0.0410
     27 H7         -0.4148   -0.2928    2.6940 H         1 <0>         0.0839
     28 H8          0.2232   -1.5951    1.6619 H         1 <0>         0.0788
     29 H9          1.3703   -0.9564    4.8419 H         1 <0>         0.0720
     30 H10         1.3111   -2.2063    3.5615 H         1 <0>         0.0692
     31 H11         4.0157   -0.2125    5.4899 H         1 <0>         0.0858
     32 H12         5.2143   -1.0854    4.4796 H         1 <0>         0.0843
     33 H13         3.6277   -4.6338    4.9675 H         1 <0>         0.0395
     34 H14         2.2140   -4.3981    3.9119 H         1 <0>         0.0384
     35 H15         3.7258   -5.0558    3.2410 H         1 <0>         0.0824
     36 H16        -1.7680   -1.5521    0.5074 H         1 <0>         0.0579
     37 H17        -2.5588   -0.0251    0.9670 H         1 <0>         0.0615
     38 H18        -1.2855   -2.0631   -1.8417 H         1 <0>         0.0512
     39 H19        -1.5142   -0.8271   -3.1020 H         1 <0>         0.0502
     40 H20        -0.2218   -0.6368   -1.8930 H         1 <0>         0.0621
     41 H21        -4.3175   -0.2104   -0.7316 H         1 <0>         0.0525
     42 H22        -3.9059   -0.5781   -2.4238 H         1 <0>         0.0512
     43 H23        -3.6772   -1.8141   -1.1635 H         1 <0>         0.0513
     44 H24        -1.0929    1.5696   -1.4969 H         1 <0>         0.0700
     45 H25        -2.6127    1.4495   -2.4157 H         1 <0>         0.0452
     46 H26        -2.6524    1.8106   -0.6733 H         1 <0>         0.0581
@<TRIPOS>BOND
     1    1    2 1
     2    1   24 1
     3    1   25 1
     4    1   26 1
     5    2    3 1
     6    2    4 1
     7    2   19 1
     8    4    5 1
     9    4   27 1
    10    4   28 1
    11    5    6 2
    12    5    7 am
    13    7   12 1
    14    7    8 1
    15    8    9 1
    16    8   29 1
    17    8   30 1
    18    9   10 1
    19    9   11 1
    20    9   17 1
    21   11   12 1
    22   11   31 1
    23   11   32 1
    24   12   13 1
    25   12   14 1
    26   14   15 2
    27   14   16 1
    28   17   18 1
    29   18   33 1
    30   18   34 1
    31   18   35 1
    32   19   20 1
    33   19   36 1
    34   19   37 1
    35   20   21 1
    36   20   22 1
    37   20   23 1
    38   21   38 1
    39   21   39 1
    40   21   40 1
    41   22   41 1
    42   22   42 1
    43   22   43 1
    44   23   44 1
    45   23   45 1
    46   23   46 1
@<TRIPOS>MOLECULE
ZINC37835469
   43    43     0     0     0
SMALL
USER_CHARGES

@<TRIPOS>ATOM
      1 C1         -0.0187    1.5258    0.0104 C.3       1 <0>        -0.1395
      2 C2          0.0021   -0.0041    0.0020 C.3       1 <0>        -0.0722
      3 C3          0.7421   -0.5109    1.2415 C.3       1 <0>        -0.1467
      4 C4         -1.4333   -0.5336    0.0129 C.3       1 <0>        -0.1126
      5 C5         -2.1494   -0.0402    1.2717 C.3       1 <0>        -0.1248
      6 C6         -1.4126   -2.0635    0.0045 C.3       1 <0>        -0.1092
      7 C7         -2.8264   -2.5851    0.0152 C.2       1 <0>         0.5101
      8 O1         -3.7588   -1.8096    0.0282 O.2       1 <0>        -0.4935
      9 N1         -3.0546   -3.9134    0.0102 N.am      1 <0>        -0.6287
     10 C8         -1.9385   -4.8711    0.0005 C.3       1 <0>         0.1153
     11 C9         -2.1568   -5.8845    1.1291 C.3       1 <0>         0.0422
     12 N2         -3.4909   -6.4841    0.9932 N.3       1 <0>        -0.5354
     13 C10        -4.5469   -5.4738    1.1423 C.3       1 <0>         0.0440
     14 C11        -4.4265   -4.4436    0.0205 C.3       1 <0>         0.1185
     15 C12        -3.6744   -7.5827    1.9510 C.3       1 <0>         0.1622
     16 C13        -4.9132   -8.3107    1.6313 C.1       1 <0>        -0.1791
     17 C14        -5.9012   -8.8913    1.3762 C.1       1 <0>        -0.1981
     18 C15        -2.1622   -0.0344   -1.2080 C.2       1 <0>         0.5158
     19 O2         -1.7523   -0.3173   -2.3209 O.co2     1 <0>        -0.7143
     20 O3         -3.1618    0.6523   -1.0829 O.co2     1 <0>        -0.6807
     21 H1          1.0039    1.9031    0.0027 H         1 <0>         0.0399
     22 H2         -0.5459    1.8868   -0.8726 H         1 <0>         0.0594
     23 H3         -0.5289    1.8773    0.9072 H         1 <0>         0.0512
     24 H4          0.5123   -0.3556   -0.8948 H         1 <0>         0.0680
     25 H5          1.7647   -0.1336    1.2338 H         1 <0>         0.0441
     26 H6          0.2319   -0.1594    2.1383 H         1 <0>         0.0531
     27 H7          0.7568   -1.6008    1.2356 H         1 <0>         0.0479
     28 H8         -2.1642    1.0497    1.2777 H         1 <0>         0.0488
     29 H9         -3.1720   -0.4175    1.2794 H         1 <0>         0.0741
     30 H10        -1.6223   -0.4013    2.1547 H         1 <0>         0.0217
     31 H11        -0.9024   -2.4150   -0.8923 H         1 <0>         0.0892
     32 H12        -0.8854   -2.4246    0.8875 H         1 <0>         0.0749
     33 H13        -1.9099   -5.3904   -0.9574 H         1 <0>         0.0735
     34 H14        -0.9997   -4.3410    0.1610 H         1 <0>         0.0911
     35 H15        -1.3990   -6.6656    1.0682 H         1 <0>         0.0880
     36 H16        -2.0817   -5.3787    2.0917 H         1 <0>         0.0418
     37 H17        -5.5225   -5.9571    1.0910 H         1 <0>         0.0845
     38 H18        -4.4385   -4.9737    2.1047 H         1 <0>         0.0394
     39 H19        -5.1319   -3.6310    0.1941 H         1 <0>         0.0956
     40 H20        -4.6417   -4.9211   -0.9355 H         1 <0>         0.0680
     41 H21        -2.8261   -8.2643    1.8889 H         1 <0>         0.0981
     42 H22        -3.7415   -7.1772    2.9605 H         1 <0>         0.0573
     43 H23        -6.7848   -9.4105    1.1481 H         1 <0>         0.2169
@<TRIPOS>BOND
     1    1    2 1
     2    1   21 1
     3    1   22 1
     4    1   23 1
     5    2    3 1
     6    2    4 1
     7    2   24 1
     8    3   25 1
     9    3   26 1
    10    3   27 1
    11    4    5 1
    12    4    6 1
    13    4   18 1
    14    5   28 1
    15    5   29 1
    16    5   30 1
    17    6    7 1
    18    6   31 1
    19    6   32 1
    20    7    8 2
    21    7    9 am
    22    9   14 1
    23    9   10 1
    24   10   11 1
    25   10   33 1
    26   10   34 1
    27   11   12 1
    28   11   35 1
    29   11   36 1
    30   12   13 1
    31   12   15 1
    32   13   14 1
    33   13   37 1
    34   13   38 1
    35   14   39 1
    36   14   40 1
    37   15   16 1
    38   15   41 1
    39   15   42 1
    40   16   17 3
    41   17   43 1
    42   18   19 2
    43   18   20 1
@<TRIPOS>MOLECULE
ZINC49303752
   31    32     0     0     0
SMALL
USER_CHARGES

@<TRIPOS>ATOM
      1 C1         -0.0178    1.4608    0.0101 C.3       1 <0>         0.0665
      2 N1          0.0021   -0.0041    0.0020 N.am      1 <0>        -0.5886
      3 C2          0.0241   -0.7433    1.2666 C.3       1 <0>         0.0815
      4 C3         -0.1780    0.0558    2.5556 C.3       1 <0>        -0.1869
      5 C4          1.2052   -0.4980    2.2078 C.3       1 <0>        -0.1909
      6 C5          0.0001   -0.6716   -1.1688 C.2       1 <0>         0.5375
      7 O1          0.0165   -1.8843   -1.1755 O.2       1 <0>        -0.5189
      8 C6         -0.0226    0.0888   -2.4697 C.3       1 <0>        -0.1327
      9 S1         -0.0198   -1.0824   -3.8549 S.3       1 <0>        -0.0193
     10 C7         -0.0474   -0.0524   -5.2842 C.ar      1 <0>         0.0888
     11 C8         -0.0572   -0.6353   -6.5519 C.ar      1 <0>        -0.1587
     12 C9         -0.0786    0.1666   -7.6592 C.ar      1 <0>        -0.0307
     13 C10        -0.0900    1.5605   -7.4773 C.ar      1 <0>        -0.1796
     14 C11        -0.0791    2.0751   -6.1778 C.ar      1 <0>         0.1364
     15 N2         -0.0639    1.2669   -5.1395 N.ar      1 <0>        -0.5051
     16 C12        -0.1125    2.4644   -8.6377 C.2       1 <0>         0.5245
     17 O2         -0.1215    2.0044   -9.7715 O.co2     1 <0>        -0.6824
     18 O3         -0.1223    3.6763   -8.4692 O.co2     1 <0>        -0.6826
     19 H1          1.0048    1.8381    0.0023 H         1 <0>         0.0613
     20 H2         -0.5450    1.8219   -0.8730 H         1 <0>         0.0815
     21 H3         -0.5280    1.8123    0.9069 H         1 <0>         0.0789
     22 H4         -0.3886   -1.7515    1.2291 H         1 <0>         0.1347
     23 H5         -0.3274    1.1315    2.4627 H         1 <0>         0.1023
     24 H6         -0.7240   -0.4266    3.3664 H         1 <0>         0.1046
     25 H7          1.5692   -1.3447    2.7898 H         1 <0>         0.1021
     26 H8          1.9658    0.2134    1.8861 H         1 <0>         0.0969
     27 H9         -0.9215    0.7036   -2.5156 H         1 <0>         0.1197
     28 H10         0.8582    0.7278   -2.5324 H         1 <0>         0.1193
     29 H11        -0.0476   -1.7101   -6.6576 H         1 <0>         0.1320
     30 H12        -0.0862   -0.2610   -8.6509 H         1 <0>         0.1429
     31 H13        -0.0877    3.1442   -6.0246 H         1 <0>         0.1652
@<TRIPOS>BOND
     1    1    2 1
     2    1   19 1
     3    1   20 1
     4    1   21 1
     5    2    3 1
     6    2    6 am
     7    3    5 1
     8    3    4 1
     9    3   22 1
    10    4    5 1
    11    4   23 1
    12    4   24 1
    13    5   25 1
    14    5   26 1
    15    6    7 2
    16    6    8 1
    17    8    9 1
    18    8   27 1
    19    8   28 1
    20    9   10 1
    21   10   15 ar
    22   10   11 ar
    23   11   12 ar
    24   11   29 1
    25   12   13 ar
    26   12   30 1
    27   13   14 ar
    28   13   16 1
    29   14   15 ar
    30   14   31 1
    31   16   17 2
    32   16   18 1
@<TRIPOS>MOLECULE
ZINC61827341
   38    38     0     0     0
SMALL
USER_CHARGES

@<TRIPOS>ATOM
      1 C1         -0.0184    1.5028    0.0103 C.3       1 <0>        -0.0604
      2 C2          0.0021   -0.0041    0.0020 C.2       1 <0>         0.0445
      3 N1         -1.0131   -0.8316    0.0019 N.2       1 <0>        -0.5085
      4 C3         -0.8336   -2.1374   -0.0059 C.2       1 <0>         0.0395
      5 C4          0.4492   -2.5821   -0.0139 C.2       1 <0>        -0.1935
      6 S1          1.3350   -1.0316   -0.0168 S.3       1 <0>         0.0899
      7 C5         -1.9989   -3.0929   -0.0056 C.3       1 <0>         0.1920
      8 N2         -2.4467   -3.3165    1.3713 N.am      1 <0>        -0.6191
      9 C6         -3.4725   -2.4504    1.9576 C.3       1 <0>         0.0806
     10 C7         -1.9149   -4.3189    2.0985 C.2       1 <0>         0.5175
     11 O1         -1.0657   -5.0359    1.6131 O.2       1 <0>        -0.5164
     12 C8         -2.3756   -4.5488    3.5149 C.3       1 <0>        -0.1308
     13 C9         -1.6197   -5.7384    4.1102 C.3       1 <0>        -0.0193
     14 C10        -1.8975   -6.9893    3.2742 C.3       1 <0>        -0.1546
     15 C11        -0.1184   -5.4437    4.1037 C.3       1 <0>        -0.1538
     16 C12        -2.0874   -5.9718    5.5482 C.3       1 <0>        -0.1761
     17 C13        -1.3429   -7.1435    6.1346 C.2       1 <0>         0.4947
     18 O2         -0.5150   -7.7369    5.4645 O.co2     1 <0>        -0.6811
     19 O3         -1.5685   -7.4981    7.2791 O.co2     1 <0>        -0.7103
     20 H1          1.0042    1.8801    0.0026 H         1 <0>         0.0820
     21 H2         -0.5455    1.8639   -0.8728 H         1 <0>         0.0878
     22 H3         -0.5286    1.8543    0.9071 H         1 <0>         0.0881
     23 H4          0.8286   -3.5932   -0.0206 H         1 <0>         0.1995
     24 H5         -2.8162   -2.6694   -0.5892 H         1 <0>         0.0879
     25 H6         -1.6912   -4.0413   -0.4460 H         1 <0>         0.1000
     26 H7         -4.4587   -2.8713    1.7619 H         1 <0>         0.0550
     27 H8         -3.3153   -2.3783    3.0338 H         1 <0>         0.0710
     28 H9         -3.4066   -1.4571    1.5135 H         1 <0>         0.0730
     29 H10        -2.1776   -3.6576    4.1105 H         1 <0>         0.0823
     30 H11        -3.4451   -4.7588    3.5195 H         1 <0>         0.0843
     31 H12        -1.5644   -6.8230    2.2497 H         1 <0>         0.0610
     32 H13        -1.3591   -7.8368    3.6983 H         1 <0>         0.0936
     33 H14        -2.9671   -7.1992    3.2788 H         1 <0>         0.0215
     34 H15         0.0795   -4.5525    4.6993 H         1 <0>         0.0199
     35 H16         0.4201   -6.2912    4.5279 H         1 <0>         0.0938
     36 H17         0.2148   -5.2774    3.0793 H         1 <0>         0.0602
     37 H18        -1.8895   -5.0807    6.1438 H         1 <0>         0.0517
     38 H19        -3.1570   -6.1818    5.5528 H         1 <0>         0.0526
@<TRIPOS>BOND
     1    1    2 1
     2    1   20 1
     3    1   21 1
     4    1   22 1
     5    2    6 1
     6    2    3 2
     7    3    4 1
     8    4    5 2
     9    4    7 1
    10    5    6 1
    11    5   23 1
    12    7    8 1
    13    7   24 1
    14    7   25 1
    15    8    9 1
    16    8   10 am
    17    9   26 1
    18    9   27 1
    19    9   28 1
    20   10   11 2
    21   10   12 1
    22   12   13 1
    23   12   29 1
    24   12   30 1
    25   13   14 1
    26   13   15 1
    27   13   16 1
    28   14   31 1
    29   14   32 1
    30   14   33 1
    31   15   34 1
    32   15   35 1
    33   15   36 1
    34   16   17 1
    35   16   37 1
    36   16   38 1
    37   17   18 2
    38   17   19 1
@<TRIPOS>MOLECULE
ZINC67003497
   38    38     0     0     0
SMALL
USER_CHARGES

@<TRIPOS>ATOM
      1 C1         -0.0187    1.5258    0.0104 C.3       1 <0>        -0.1258
      2 C2          0.0021   -0.0041    0.0020 C.3       1 <0>        -0.0416
      3 H1          0.5293   -0.3651    0.8851 H         1 <0>         0.0859
      4 C3          0.7182   -0.4975   -1.2568 C.3       1 <0>        -0.0585
      5 S1          2.4600    0.0058   -1.1981 S.3       1 <0>        -0.2724
      6 C4          3.1577   -0.6472   -2.7400 C.3       1 <0>        -0.1220
      7 C5         -1.4117   -0.5257    0.0127 C.2       1 <0>         0.4955
      8 O1         -1.6734   -1.7553    0.5024 O.3       1 <0>        -0.7203
      9 N1         -2.3720    0.2037   -0.4465 N.2       1 <0>        -1.0655
     10 S2         -3.9256   -0.3695   -0.4348 S.o2      1 <0>         2.5739
     11 O2         -3.9044   -1.4925   -1.3052 O.2       1 <0>        -1.0077
     12 O3         -4.2442   -0.5254    0.9413 O.2       1 <0>        -0.9855
     13 C6         -4.9199    0.9637   -1.1590 C.3       1 <0>        -0.6109
     14 C7         -6.3895    0.5400   -1.1989 C.3       1 <0>         0.0999
     15 H2         -6.4803   -0.4075   -1.7300 H         1 <0>         0.0670
     16 C8         -7.2103    1.6112   -1.9218 C.3       1 <0>        -0.1413
     17 C9         -8.6882    1.2089   -1.9048 C.3       1 <0>        -0.1247
     18 C10        -9.1364    1.0144   -0.4530 C.3       1 <0>        -0.1565
     19 C11        -8.2412   -0.0338    0.2131 C.3       1 <0>         0.0563
     20 O4         -6.8778    0.3871    0.1354 O.3       1 <0>        -0.3677
     21 H3          1.0039    1.9031    0.0027 H         1 <0>         0.0498
     22 H4         -0.5459    1.8868   -0.8726 H         1 <0>         0.0689
     23 H5         -0.5289    1.8773    0.9072 H         1 <0>         0.0531
     24 H6          0.6556   -1.5845   -1.3079 H         1 <0>         0.0832
     25 H7          0.2444   -0.0644   -2.1377 H         1 <0>         0.0848
     26 H8          4.2159   -0.3919   -2.7967 H         1 <0>         0.0960
     27 H9          3.0438   -1.7310   -2.7600 H         1 <0>         0.0731
     28 H10         2.6326   -0.2110   -3.5897 H         1 <0>         0.0733
     29 H11        -4.8176    1.8638   -0.5527 H         1 <0>         0.1314
     30 H12        -4.5727    1.1667   -2.1721 H         1 <0>         0.1335
     31 H13        -7.0874    2.5682   -1.4146 H         1 <0>         0.0749
     32 H14        -6.8682    1.6979   -2.9531 H         1 <0>         0.0752
     33 H15        -9.2852    1.9941   -2.3686 H         1 <0>         0.0675
     34 H16        -8.8187    0.2769   -2.4547 H         1 <0>         0.0643
     35 H17        -9.0524    1.9593    0.0838 H         1 <0>         0.0720
     36 H18       -10.1718    0.6743   -0.4339 H         1 <0>         0.0721
     37 H19        -8.5282   -0.1452    1.2588 H         1 <0>         0.0975
     38 H20        -8.3564   -0.9888   -0.2994 H         1 <0>         0.0511
@<TRIPOS>BOND
     1    1    2 1
     2    1   21 1
     3    1   22 1
     4    1   23 1
     5    2    3 1
     6    2    4 1
     7    2    7 1
     8    4    5 1
     9    4   24 1
    10    4   25 1
    11    5    6 1
    12    6   26 1
    13    6   27 1
    14    6   28 1
    15    7    8 1
    16    7    9 2
    17    9   10 1
    18   10   11 2
    19   10   12 2
    20   10   13 1
    21   13   14 1
    22   13   29 1
    23   13   30 1
    24   14   15 1
    25   14   20 1
    26   14   16 1
    27   16   17 1
    28   16   31 1
    29   16   32 1
    30   17   18 1
    31   17   33 1
    32   17   34 1
    33   18   19 1
    34   18   35 1
    35   18   36 1
    36   19   20 1
    37   19   37 1
    38   19   38 1
@<TRIPOS>MOLECULE
ZINC23375027
   54    59     0     0     0
SMALL
USER_CHARGES
[(1R)-1-cyclohex-3-enyl]BLAHcarboxylic acid
@<TRIPOS>ATOM
      1 C1         -0.5513    4.9884   -2.5224 C.ar      1 <0>        -0.0641
      2 C2         -0.4513    5.7361   -1.3505 C.ar      1 <0>        -0.1225
      3 C3         -0.5113    5.0874   -0.1182 C.ar      1 <0>        -0.0873
      4 C4         -0.6530    3.7117   -0.0610 C.ar      1 <0>        -0.0899
      5 C5         -0.6947    2.9698   -1.2390 C.ar      1 <0>         0.1179
      6 C6         -0.6810    3.6216   -2.4702 C.ar      1 <0>        -0.1310
      7 C7         -0.8257    2.9089   -3.7829 C.3       1 <0>        -0.0104
      8 H1         -1.7251    3.3461   -4.2411 H         1 <0>         0.0919
      9 C8          0.4061    3.1087   -4.6324 C.2       1 <0>        -0.1415
     10 C9          0.7436    1.9959   -5.2287 C.2       1 <0>        -0.1951
     11 C10        -0.2087    0.8778   -4.8706 C.3       1 <0>        -0.0814
     12 C11        -0.9485    1.3869   -3.6074 C.3       1 <0>        -0.0795
     13 H2         -1.9772    1.0178   -3.4828 H         1 <0>         0.0966
     14 C12        -0.1586    0.9669   -2.3688 C.3       1 <0>         0.0565
     15 N1         -0.7264    1.5815   -1.1788 N.pl3     1 <0>        -0.4729
     16 C13        -0.0127    1.0858    0.0080 C.3       1 <0>         0.0882
     17 H3         -0.0235   -0.0133   -0.0354 H         1 <0>         0.0888
     18 C14        -0.7198    1.5663    1.2651 C.3       1 <0>        -0.0826
     19 H4         -0.1841    1.0962    2.1030 H         1 <0>         0.0930
     20 C15        -0.7419    3.1009    1.3106 C.3       1 <0>        -0.0145
     21 H5          0.1123    3.5020    1.8759 H         1 <0>         0.0964
     22 C16        -2.0928    3.4425    1.9072 C.2       1 <0>        -0.1580
     23 C17        -2.9036    2.4206    1.8388 C.2       1 <0>        -0.1705
     24 C18        -2.2261    1.2329    1.1920 C.3       1 <0>        -0.0839
     25 C19         1.4229    1.6149   -0.0029 C.3       1 <0>        -0.1070
     26 H6          1.9295    1.2489   -0.9081 H         1 <0>         0.0688
     27 C20         2.1608    1.1293    1.2512 C.3       1 <0>        -0.1102
     28 C21         3.6349    1.5207    1.1276 C.3       1 <0>        -0.0835
     29 C22         3.7557    2.9690    0.7538 C.2       1 <0>        -0.1870
     30 C23         2.7880    3.6744    0.2624 C.2       1 <0>        -0.1325
     31 C24         1.4072    3.1450    0.0068 C.3       1 <0>        -0.1764
     32 C25        -0.2831    7.1989   -1.4137 C.2       1 <0>         0.4912
     33 O1         -0.1961    7.8453   -0.3883 O.co2     1 <0>        -0.6354
     34 O2         -0.2259    7.8196   -2.6084 O.co2     1 <0>        -0.7588
     35 H7         -0.5263    5.4876   -3.4798 H         1 <0>         0.1266
     36 H8         -0.4473    5.6602    0.7951 H         1 <0>         0.1245
     37 H9          1.0021    4.0197   -4.7899 H         1 <0>         0.1282
     38 H10         1.6233    1.9704   -5.8887 H         1 <0>         0.1238
     39 H11        -0.9001    0.7027   -5.7080 H         1 <0>         0.0755
     40 H12         0.3628   -0.0402   -4.6690 H         1 <0>         0.0677
     41 H13        -0.1977   -0.1273   -2.2626 H         1 <0>         0.0772
     42 H14         0.8882    1.2877   -2.4752 H         1 <0>         0.0472
     43 H15        -2.4346    4.3867    2.3563 H         1 <0>         0.1266
     44 H16        -3.9292    2.5053    2.2272 H         1 <0>         0.1223
     45 H17        -2.5241    1.1112    0.1401 H         1 <0>         0.0978
     46 H18        -2.4219    0.2988    1.7389 H         1 <0>         0.0614
     47 H19         1.7200    1.6011    2.1417 H         1 <0>         0.0671
     48 H20         2.0676    0.0362    1.3313 H         1 <0>         0.0607
     49 H21         4.1406    1.3534    2.0900 H         1 <0>         0.0652
     50 H22         4.1134    0.9067    0.3504 H         1 <0>         0.0644
     51 H23         4.7413    3.4281    0.9208 H         1 <0>         0.0956
     52 H24         2.9533    4.7310    0.0049 H         1 <0>         0.1026
     53 H25         1.0541    3.5142   -0.9674 H         1 <0>         0.0982
     54 H26         0.7325    3.4998    0.7998 H         1 <0>         0.1538
@<TRIPOS>BOND
     1    1    6 ar
     2    1    2 ar
     3    1   35 1
     4    2    3 ar
     5    2   32 1
     6    3    4 ar
     7    3   36 1
     8    4   20 1
     9    4    5 ar
    10    5   15 1
    11    5    6 ar
    12    6    7 1
    13    7    8 1
    14    7   12 1
    15    7    9 1
    16    9   10 2
    17    9   37 1
    18   10   11 1
    19   10   38 1
    20   11   12 1
    21   11   39 1
    22   11   40 1
    23   12   13 1
    24   12   14 1
    25   14   15 1
    26   14   41 1
    27   14   42 1
    28   15   16 1
    29   16   17 1
    30   16   18 1
    31   16   25 1
    32   18   19 1
    33   18   24 1
    34   18   20 1
    35   20   21 1
    36   20   22 1
    37   22   23 2
    38   22   43 1
    39   23   24 1
    40   23   44 1
    41   24   45 1
    42   24   46 1
    43   25   26 1
    44   25   31 1
    45   25   27 1
    46   27   28 1
    47   27   47 1
    48   27   48 1
    49   28   29 1
    50   28   49 1
    51   28   50 1
    52   29   30 2
    53   29   51 1
    54   30   31 1
    55   30   52 1
    56   31   53 1
    57   31   54 1
    58   32   33 2
    59   32   34 1
@<TRIPOS>MOLECULE
ZINC33698750
   29    30     0     0     0
SMALL
USER_CHARGES
4-chloro-N-(4-chlorophenyl)-3-(trifluoromethyl)benzenesulfonamide
@<TRIPOS>ATOM
      1 C1          2.4577    2.1065   -3.3624 C.ar      1 <0>        -0.1484
      2 C2          2.8015    3.1239   -4.2308 C.ar      1 <0>        -0.0986
      3 C3          4.0909    3.6262   -4.2342 C.ar      1 <0>        -0.0829
      4 C4          5.0375    3.1156   -3.3635 C.ar      1 <0>        -0.0962
      5 C5          4.6976    2.1024   -2.4887 C.ar      1 <0>        -0.1505
      6 C6          3.4042    1.5960   -2.4834 C.ar      1 <0>         0.2235
      7 N1          3.0575    0.5708   -1.5993 N.2       1 <0>        -1.0762
      8 S1          2.8539    0.8996    0.0109 S.o2      1 <0>         2.5859
      9 O1          4.0079    1.6161    0.4282 O.2       1 <0>        -1.0298
     10 O2          2.4481   -0.3157    0.6254 O.2       1 <0>        -0.9906
     11 C7          1.4940    2.0116    0.1476 C.ar      1 <0>        -0.6524
     12 C8          1.7195    3.3740    0.2167 C.ar      1 <0>         0.0132
     13 C9          0.6534    4.2466    0.3244 C.ar      1 <0>        -0.1339
     14 C10        -0.6401    3.7567    0.3627 C.ar      1 <0>         0.0367
     15 C11        -0.8655    2.3939    0.2872 C.ar      1 <0>        -0.2067
     16 C12         0.2021    1.5217    0.1853 C.ar      1 <0>         0.0326
     17 C13        -2.2743    1.8599    0.3225 C.3       1 <0>         0.5123
     18 F1         -2.2460    0.4637    0.2389 F         1 <0>        -0.1713
     19 F2         -2.8884    2.2431    1.5197 F         1 <0>        -0.1734
     20 F3         -2.9963    2.3773   -0.7583 F         1 <0>        -0.1719
     21 Cl1        -1.9800    4.8522    0.4980 Cl        1 <0>        -0.0522
     22 Cl2         4.5216    4.8998   -5.3325 Cl        1 <0>        -0.1063
     23 H1          1.4526    1.7113   -3.3637 H         1 <0>         0.1197
     24 H2          2.0645    3.5248   -4.9109 H         1 <0>         0.1168
     25 H3          6.0429    3.5099   -3.3678 H         1 <0>         0.1179
     26 H4          5.4366    1.7044   -1.8092 H         1 <0>         0.1265
     27 H5          2.7292    3.7562    0.1869 H         1 <0>         0.1527
     28 H6          0.8297    5.3107    0.3784 H         1 <0>         0.1466
     29 H7          0.0264    0.4575    0.1305 H         1 <0>         0.1572
@<TRIPOS>BOND
     1    1    6 ar
     2    1    2 ar
     3    1   23 1
     4    2    3 ar
     5    2   24 1
     6    3    4 ar
     7    3   22 1
     8    4    5 ar
     9    4   25 1
    10    5    6 ar
    11    5   26 1
    12    6    7 1
    13    7    8 1
    14    8    9 2
    15    8   10 2
    16    8   11 1
    17   11   16 ar
    18   11   12 ar
    19   12   13 ar
    20   12   27 1
    21   13   14 ar
    22   13   28 1
    23   14   15 ar
    24   14   21 1
    25   15   16 ar
    26   15   17 1
    27   16   29 1
    28   17   18 1
    29   17   19 1
    30   17   20 1
@<TRIPOS>MOLECULE
ZINC40273466
   27    29     0     0     0
SMALL
USER_CHARGES

@<TRIPOS>ATOM
      1 C1         -0.0167    1.3819    0.0096 C.ar      1 <0>        -0.0871
      2 C2          1.1622    2.0952    0.0022 C.ar      1 <0>        -0.1235
      3 C3          2.3811    1.4169   -0.0130 C.ar      1 <0>         0.1115
      4 C4          2.3957    0.0139   -0.0206 C.ar      1 <0>        -0.0435
      5 C5          1.2013   -0.6876   -0.0134 C.ar      1 <0>        -0.0531
      6 C6          0.0021   -0.0041    0.0020 C.ar      1 <0>        -0.1554
      7 C7         -1.2957   -0.7700    0.0107 C.3       1 <0>         0.1015
      8 H1         -1.0875   -1.8368    0.0925 H         1 <0>         0.1168
      9 C8         -2.0462   -0.5013   -1.2682 C.ar      1 <0>        -0.1136
     10 C9         -1.9275   -1.3721   -2.3351 C.ar      1 <0>        -0.0634
     11 C10        -2.6154   -1.1264   -3.5084 C.ar      1 <0>        -0.1196
     12 C11        -3.4242   -0.0087   -3.6161 C.ar      1 <0>        -0.0070
     13 C12        -3.5445    0.8632   -2.5495 C.ar      1 <0>        -0.1486
     14 C13        -2.8590    0.6145   -1.3724 C.ar      1 <0>         0.1358
     15 F1         -2.9794    1.4630   -0.3280 F         1 <0>        -0.1144
     16 Cl1        -4.2874    0.2992   -5.0905 Cl        1 <0>        -0.0605
     17 Cl2        -2.2950   -0.2433    1.4160 Cl        1 <0>        -0.1635
     18 O1          3.6975   -0.3532   -0.0350 O.3       1 <0>        -0.2748
     19 C14         4.4479    0.7616   -0.0362 C.2       1 <0>         0.5157
     20 O2          5.7994    0.7849   -0.0497 O.3       1 <0>        -0.6435
     21 N1          3.6818    1.8195   -0.0233 N.2       1 <0>        -0.6100
     22 H2         -0.9610    1.9059    0.0260 H         1 <0>         0.1247
     23 H3          1.1426    3.1750    0.0078 H         1 <0>         0.1215
     24 H4          1.2082   -1.7676   -0.0192 H         1 <0>         0.1184
     25 H5         -1.2966   -2.2446   -2.2520 H         1 <0>         0.1460
     26 H6         -2.5214   -1.8070   -4.3417 H         1 <0>         0.1423
     27 H7         -4.1756    1.7356   -2.6333 H         1 <0>         0.1472
@<TRIPOS>BOND
     1    1    6 ar
     2    1    2 ar
     3    1   22 1
     4    2    3 ar
     5    2   23 1
     6    3   21 1
     7    3    4 ar
     8    4    5 ar
     9    4   18 1
    10    5    6 ar
    11    5   24 1
    12    6    7 1
    13    7    8 1
    14    7    9 1
    15    7   17 1
    16    9   14 ar
    17    9   10 ar
    18   10   11 ar
    19   10   25 1
    20   11   12 ar
    21   11   26 1
    22   12   13 ar
    23   12   16 1
    24   13   14 ar
    25   13   27 1
    26   14   15 1
    27   18   19 1
    28   19   20 1
    29   19   21 2
@<TRIPOS>MOLECULE
ZINC09553561
   30    30     0     0     0
SMALL
USER_CHARGES

@<TRIPOS>ATOM
      1 C1         -0.0184    1.5028    0.0103 C.3       1 <0>        -0.1095
      2 C2          0.0021   -0.0041    0.0020 C.ar      1 <0>        -0.0932
      3 C3          0.0057   -0.6860   -1.2022 C.ar      1 <0>        -0.1355
      4 C4          0.0244   -2.0649   -1.2177 C.ar      1 <0>        -0.0778
      5 C5          0.0401   -2.7735   -0.0132 C.ar      1 <0>        -0.0875
      6 C6          0.0368   -2.0780    1.1989 C.ar      1 <0>        -0.0887
      7 C7          0.0229   -0.6990    1.1987 C.ar      1 <0>        -0.1351
      8 C8          0.0596   -4.2483   -0.0213 C.2       1 <0>         0.3444
      9 O1          0.0623   -4.9172   -1.1947 O.3       1 <0>        -0.6150
     10 C9          0.0749   -4.9373    1.1573 C.2       1 <0>        -0.5083
     11 C10         0.0935   -6.3366    1.1496 C.2       1 <0>         0.3483
     12 C11         0.1104   -7.0972    2.4506 C.3       1 <0>         0.2148
     13 C12         1.2903   -6.6246    3.3022 C.3       1 <0>         0.2416
     14 C13         1.3075   -7.3968    4.6230 C.3       1 <0>         0.4229
     15 F1          1.4392   -8.7648    4.3617 F         1 <0>        -0.1494
     16 F2          2.3864   -6.9647    5.4018 F         1 <0>        -0.1583
     17 F3          0.1125   -7.1668    5.3132 F         1 <0>        -0.1489
     18 F4          2.4853   -6.8546    2.6121 F         1 <0>        -0.1384
     19 F5          1.1586   -5.2566    3.5635 F         1 <0>        -0.1315
     20 F6         -1.0846   -6.8672    3.1408 F         1 <0>        -0.1621
     21 F7          0.2421   -8.4652    2.1893 F         1 <0>        -0.1623
     22 O2          0.0959   -6.9387    0.0936 O.2       1 <0>        -0.4586
     23 H1          1.0042    1.8801    0.0026 H         1 <0>         0.0654
     24 H2         -0.5455    1.8639   -0.8728 H         1 <0>         0.0618
     25 H3         -0.5286    1.8543    0.9071 H         1 <0>         0.0621
     26 H4         -0.0064   -0.1370   -2.1322 H         1 <0>         0.1167
     27 H5          0.0265   -2.5958   -2.1582 H         1 <0>         0.1297
     28 H6          0.0488   -2.6191    2.1336 H         1 <0>         0.1290
     29 H7          0.0244   -0.1601    2.1346 H         1 <0>         0.1174
     30 H8          0.0728   -4.4025    2.0956 H         1 <0>         0.1062
@<TRIPOS>BOND
     1    1    2 1
     2    1   23 1
     3    1   24 1
     4    1   25 1
     5    2    7 ar
     6    2    3 ar
     7    3    4 ar
     8    3   26 1
     9    4    5 ar
    10    4   27 1
    11    5    6 ar
    12    5    8 1
    13    6    7 ar
    14    6   28 1
    15    7   29 1
    16    8   10 2
    17    8    9 1
    18   10   30 1
    19   10   11 1
    20   11   12 1
    21   11   22 2
    22   12   13 1
    23   12   20 1
    24   12   21 1
    25   13   14 1
    26   13   18 1
    27   13   19 1
    28   14   15 1
    29   14   16 1
    30   14   17 1
@<TRIPOS>MOLECULE
ZINC06476899
   33    35     0     0     0
SMALL
USER_CHARGES

@<TRIPOS>ATOM
      1 C1          0.1226    1.2548    0.8631 C.3       1 <0>        -0.1350
      2 C2          0.0021   -0.0041    0.0020 C.3       1 <0>         0.1533
      3 H1          0.5254   -0.8278    0.4875 H         1 <0>         0.1399
      4 C3          0.6143    0.2523   -1.3509 C.ar      1 <0>        -0.0751
      5 C4         -0.1150    0.9049   -2.3272 C.ar      1 <0>        -0.1083
      6 C5          0.4466    1.1400   -3.5683 C.ar      1 <0>        -0.1262
      7 C6          1.7376    0.7229   -3.8329 C.ar      1 <0>        -0.1256
      8 C7          2.4673    0.0711   -2.8564 C.ar      1 <0>        -0.1265
      9 C8          1.9072   -0.1602   -1.6139 C.ar      1 <0>        -0.0966
     10 N1         -1.4119   -0.3515   -0.1597 N.pl3     1 <0>        -0.4893
     11 C9         -2.3229    0.6302   -0.3416 C.2       1 <0>         0.5076
     12 O1         -1.9480    1.9212   -0.3760 O.3       1 <0>        -0.5956
     13 C10        -3.6747    0.2663   -0.4947 C.ar      1 <0>        -0.2440
     14 C11        -4.6807    1.2236   -0.6880 C.ar      1 <0>         0.0271
     15 C12        -5.9756    0.8185   -0.8314 C.ar      1 <0>        -0.1616
     16 C13        -6.3112   -0.5331   -0.7883 C.ar      1 <0>        -0.0344
     17 C14        -5.3573   -1.4895   -0.6019 C.ar      1 <0>        -0.1379
     18 C15        -4.0161   -1.1117   -0.4508 C.ar      1 <0>         0.2339
     19 N2         -3.0465   -2.0192   -0.2660 N.2       1 <0>        -0.5568
     20 C16        -1.7845   -1.6419   -0.1307 C.2       1 <0>         0.5079
     21 S1         -0.5848   -2.8419    0.0964 S.2       1 <0>        -0.6971
     22 Br1        -7.3332    2.1088   -1.0915 Br        1 <0>        -0.0694
     23 H2          1.0180    1.1879    1.4812 H         1 <0>         0.0558
     24 H3          0.1909    2.1310    0.2183 H         1 <0>         0.0760
     25 H4         -0.7551    1.3425    1.5034 H         1 <0>         0.0609
     26 H5         -1.1237    1.2307   -2.1204 H         1 <0>         0.1317
     27 H6         -0.1235    1.6492   -4.3312 H         1 <0>         0.1158
     28 H7          2.1761    0.9060   -4.8028 H         1 <0>         0.1159
     29 H8          3.4759   -0.2550   -3.0632 H         1 <0>         0.1191
     30 H9          2.4786   -0.6661   -0.8497 H         1 <0>         0.1239
     31 H10        -4.4324    2.2741   -0.7228 H         1 <0>         0.1391
     32 H11        -7.3437   -0.8280   -0.9040 H         1 <0>         0.1314
     33 H12        -5.6339   -2.5330   -0.5713 H         1 <0>         0.1400
@<TRIPOS>BOND
     1    1    2 1
     2    1   23 1
     3    1   24 1
     4    1   25 1
     5    2    3 1
     6    2    4 1
     7    2   10 1
     8    4    9 ar
     9    4    5 ar
    10    5    6 ar
    11    5   26 1
    12    6    7 ar
    13    6   27 1
    14    7    8 ar
    15    7   28 1
    16    8    9 ar
    17    8   29 1
    18    9   30 1
    19   10   20 1
    20   10   11 1
    21   11   12 1
    22   11   13 2
    23   13   18 ar
    24   13   14 ar
    25   14   15 ar
    26   14   31 1
    27   15   16 ar
    28   15   22 1
    29   16   17 ar
    30   16   32 1
    31   17   18 ar
    32   17   33 1
    33   18   19 2
    34   19   20 1
    35   20   21 2
@<TRIPOS>MOLECULE
ZINC06097946
   43    45     0     0     0
SMALL
USER_CHARGES
N-(1-cyano-1-cyclopropyl-ethyl)-2-(7,9,10-triazabicyclo[5.3.0]deca-8,10-dien-8-ylsulfanyl)acetamide
@<TRIPOS>ATOM
      1 C1          0.2873   -7.1266   -1.2585 C.3       1 <0>        -0.1635
      2 C2         -0.4797   -6.7232    0.0024 C.3       1 <0>         0.3134
      3 C3          0.2933   -7.1135    1.1928 C.1       1 <0>         0.2003
      4 N1          0.8898   -7.4147    2.1115 N.1       1 <0>        -0.4026
      5 C4         -1.8369   -7.4293    0.0215 C.3       1 <0>        -0.1666
      6 C5         -2.1676   -8.2914    1.2415 C.3       1 <0>        -0.1780
      7 C6         -1.8414   -8.9546   -0.0981 C.3       1 <0>        -0.1580
      8 N2         -0.6838   -5.2725    0.0067 N.am      1 <0>        -0.7118
      9 C7          0.3780   -4.4426   -0.0080 C.2       1 <0>         0.5373
     10 O1          1.5024   -4.8967   -0.0248 O.2       1 <0>        -0.5091
     11 C8          0.1680   -2.9503   -0.0036 C.3       1 <0>        -0.1471
     12 S1          1.7735   -2.1150   -0.0262 S.3       1 <0>         0.0823
     13 C9          1.2443   -0.4344   -0.0169 C.2       1 <0>         0.1354
     14 N3          0.0021   -0.0041    0.0020 N.2       1 <0>        -0.2954
     15 N4         -0.0154    1.2828    0.0091 N.2       1 <0>        -0.2830
     16 C10         1.2007    1.7428   -0.0000 C.2       1 <0>         0.1933
     17 N5          2.0428    0.6677   -0.0275 N.pl3     1 <0>        -0.4550
     18 C11         3.5044    0.7075   -0.0699 C.3       1 <0>         0.1017
     19 C12         3.9952    1.9937    0.6013 C.3       1 <0>        -0.1401
     20 C13         4.0861    3.1135   -0.4337 C.3       1 <0>        -0.1260
     21 C14         2.7142    3.4051   -1.0332 C.3       1 <0>        -0.1244
     22 C15         1.6311    3.1867    0.0278 C.3       1 <0>        -0.0372
     23 H1          1.2542   -6.6236   -1.2721 H         1 <0>         0.0875
     24 H2          0.4392   -8.2060   -1.2617 H         1 <0>         0.0776
     25 H3         -0.2850   -6.8376   -2.1400 H         1 <0>         0.0827
     26 H4         -2.6565   -6.8852   -0.4478 H         1 <0>         0.1338
     27 H5         -1.4183   -8.3555    2.0305 H         1 <0>         0.0961
     28 H6         -3.2050   -8.3144    1.5752 H         1 <0>         0.1069
     29 H7         -2.6643   -9.4140   -0.6458 H         1 <0>         0.1094
     30 H8         -0.8775   -9.4551   -0.1904 H         1 <0>         0.1003
     31 H9         -1.5832   -4.9094    0.0201 H         1 <0>         0.4154
     32 H10        -0.3785   -2.6629    0.8947 H         1 <0>         0.1300
     33 H11        -0.4044   -2.6613   -0.8850 H         1 <0>         0.1327
     34 H12         3.9074   -0.1558    0.4596 H         1 <0>         0.0985
     35 H13         3.8391    0.6877   -1.1070 H         1 <0>         0.0946
     36 H14         3.2967    2.2820    1.3868 H         1 <0>         0.0817
     37 H15         4.9793    1.8223    1.0374 H         1 <0>         0.0922
     38 H16         4.4678    4.0152    0.0453 H         1 <0>         0.0758
     39 H17         4.7690    2.8133   -1.2285 H         1 <0>         0.0716
     40 H18         2.6812    4.4387   -1.3778 H         1 <0>         0.0834
     41 H19         2.5369    2.7366   -1.8756 H         1 <0>         0.0654
     42 H20         2.0309    3.4292    1.0124 H         1 <0>         0.0951
     43 H21         0.7760    3.8278   -0.1866 H         1 <0>         0.1033
@<TRIPOS>BOND
     1    1    2 1
     2    1   23 1
     3    1   24 1
     4    1   25 1
     5    2    3 1
     6    2    5 1
     7    2    8 1
     8    3    4 3
     9    5    7 1
    10    5    6 1
    11    5   26 1
    12    6    7 1
    13    6   27 1
    14    6   28 1
    15    7   29 1
    16    7   30 1
    17    8    9 am
    18    8   31 1
    19    9   10 2
    20    9   11 1
    21   11   12 1
    22   11   32 1
    23   11   33 1
    24   12   13 1
    25   13   17 1
    26   13   14 2
    27   14   15 1
    28   15   16 2
    29   16   22 1
    30   16   17 1
    31   17   18 1
    32   18   19 1
    33   18   34 1
    34   18   35 1
    35   19   20 1
    36   19   36 1
    37   19   37 1
    38   20   21 1
    39   20   38 1
    40   20   39 1
    41   21   22 1
    42   21   40 1
    43   21   41 1
    44   22   42 1
    45   22   43 1
@<TRIPOS>MOLECULE
ZINC20491685
   41    42     0     0     0
SMALL
USER_CHARGES
N-butyl-N,6-dimethyl-3-oxo-4H-1,4-benzoxazine-7-sulfonamide
@<TRIPOS>ATOM
      1 C1          7.0187    9.5310   -0.7121 C.3       1 <0>        -0.1556
      2 C2          6.6088    8.2841    0.0742 C.3       1 <0>        -0.1238
      3 C3          5.1081    8.0419   -0.0998 C.3       1 <0>        -0.1416
      4 C4          4.6983    6.7950    0.6865 C.3       1 <0>         0.1011
      5 N1          3.2613    6.5631    0.5200 N.pl3     1 <0>        -0.9977
      6 C5          2.2991    7.3203    1.3243 C.3       1 <0>         0.0830
      7 S1          2.7248    5.4451   -0.5775 S.o2      1 <0>         2.6944
      8 O1          3.8185    5.1661   -1.4407 O.2       1 <0>        -0.9472
      9 O2          1.4745    5.9173   -1.0601 O.2       1 <0>        -0.9522
     10 C6          2.3932    3.9602    0.3113 C.ar      1 <0>        -0.6818
     11 C7          1.0966    3.4860    0.4013 C.ar      1 <0>        -0.0035
     12 C8          0.8362    2.3201    1.0992 C.ar      1 <0>         0.0453
     13 C9          1.8815    1.6278    1.7094 C.ar      1 <0>         0.1638
     14 C10         3.1770    2.1076    1.6159 C.ar      1 <0>        -0.1508
     15 C11         3.4297    3.2734    0.9155 C.ar      1 <0>         0.0374
     16 C12         4.8390    3.7968    0.8116 C.3       1 <0>        -0.1842
     17 N2          1.6033    0.4480    2.4141 N.am      1 <0>        -0.6752
     18 C13         0.4106   -0.1589    2.2296 C.2       1 <0>         0.4943
     19 O3          0.1361   -1.1637    2.8511 O.2       1 <0>        -0.5004
     20 C14        -0.5778    0.4173    1.2478 C.3       1 <0>         0.0438
     21 O4         -0.4319    1.8389    1.1972 O.3       1 <0>        -0.2969
     22 H1          8.0976    9.7051   -0.5870 H         1 <0>         0.0559
     23 H2          6.4608   10.4013   -0.3362 H         1 <0>         0.0543
     24 H3          6.7924    9.3829   -1.7783 H         1 <0>         0.0560
     25 H4          7.1667    7.4138   -0.3017 H         1 <0>         0.0665
     26 H5          6.8351    8.4321    1.1404 H         1 <0>         0.0639
     27 H6          4.5502    8.9123    0.2761 H         1 <0>         0.0695
     28 H7          4.8818    7.8939   -1.1660 H         1 <0>         0.0699
     29 H8          5.2562    5.9247    0.3106 H         1 <0>         0.1029
     30 H9          4.9247    6.9430    1.7527 H         1 <0>         0.0834
     31 H10         1.2770    7.0108    1.0607 H         1 <0>         0.0843
     32 H11         2.4197    8.3952    1.1244 H         1 <0>         0.0710
     33 H12         2.4781    7.1234    2.3916 H         1 <0>         0.0647
     34 H13         0.2894    4.0246   -0.0725 H         1 <0>         0.1601
     35 H14         3.9879    1.5728    2.0878 H         1 <0>         0.1444
     36 H15         5.5211    3.1227    1.3503 H         1 <0>         0.0871
     37 H16         4.8905    4.8019    1.2555 H         1 <0>         0.0966
     38 H17         5.1341    3.8479   -0.2469 H         1 <0>         0.1123
     39 H18         2.3510    0.0304    3.1045 H         1 <0>         0.4462
     40 H19        -0.3912   -0.0047    0.2493 H         1 <0>         0.1052
     41 H20        -1.6002    0.1663    1.5667 H         1 <0>         0.1535
@<TRIPOS>BOND
     1    1    2 1
     2    1   22 1
     3    1   23 1
     4    1   24 1
     5    2    3 1
     6    2   25 1
     7    2   26 1
     8    3    4 1
     9    3   27 1
    10    3   28 1
    11    4    5 1
    12    4   29 1
    13    4   30 1
    14    5    6 1
    15    5    7 1
    16    6   31 1
    17    6   32 1
    18    6   33 1
    19    7    8 2
    20    7    9 2
    21    7   10 1
    22   10   15 ar
    23   10   11 ar
    24   11   12 ar
    25   11   34 1
    26   12   21 1
    27   12   13 ar
    28   13   14 ar
    29   13   17 1
    30   14   15 ar
    31   14   35 1
    32   15   16 1
    33   16   36 1
    34   16   37 1
    35   16   38 1
    36   17   18 am
    37   17   39 1
    38   18   19 2
    39   18   20 1
    40   20   21 1
    41   20   40 1
    42   20   41 1
@<TRIPOS>MOLECULE
ZINC40468926
   38    40     0     0     0
SMALL
USER_CHARGES

@<TRIPOS>ATOM
      1 C1         -0.0187    1.5258    0.0104 C.3       1 <0>        -0.1449
      2 C2          0.0021   -0.0041    0.0020 C.3       1 <0>         0.2116
      3 C3          0.7991   -0.5201   -1.1796 C.2       1 <0>         0.5325
      4 O1          0.5638   -0.3420   -2.3555 O.2       1 <0>        -0.4457
      5 N1          1.8241   -1.2174   -0.6510 N.am      1 <0>        -0.5734
      6 C4          1.7859   -1.2137    0.6863 C.2       1 <0>         0.7090
      7 O2          2.6045   -1.7756    1.3872 O.2       1 <0>        -0.5155
      8 N2          0.7398   -0.5188    1.1686 N.am      1 <0>        -0.7133
      9 C5          2.8527   -1.8963   -1.4430 C.3       1 <0>         0.1214
     10 C6          4.0154   -0.9356   -1.6999 C.3       1 <0>         0.0394
     11 O3          4.6468   -0.6096   -0.4601 O.3       1 <0>        -0.3019
     12 C7          5.7063    0.2399   -0.5119 C.ar      1 <0>         0.1282
     13 C8          6.1259    0.7538   -1.7303 C.ar      1 <0>        -0.2112
     14 C9          7.2028    1.6176   -1.7802 C.ar      1 <0>        -0.0805
     15 C10         7.8626    1.9697   -0.6173 C.ar      1 <0>        -0.1586
     16 C11         7.4467    1.4585    0.5982 C.ar      1 <0>        -0.0804
     17 C12         6.3664    0.5992    0.6542 C.ar      1 <0>        -0.1496
     18 C13        -1.4017   -0.5517   -0.0214 C.2       1 <0>        -0.0347
     19 C14        -2.1571   -0.8263    1.0572 C.2       1 <0>        -0.1728
     20 C15        -3.3932   -1.3169    0.5774 C.2       1 <0>        -0.2149
     21 C16        -3.3193   -1.3128   -0.7657 C.2       1 <0>        -0.0213
     22 O4         -2.1129   -0.8428   -1.1228 O.3       1 <0>        -0.1603
     23 H1          1.0039    1.9031    0.0027 H         1 <0>         0.0792
     24 H2         -0.5459    1.8868   -0.8726 H         1 <0>         0.0894
     25 H3         -0.5289    1.8773    0.9072 H         1 <0>         0.0871
     26 H4          0.5152   -0.3829    2.1024 H         1 <0>         0.4426
     27 H5          3.2151   -2.7677   -0.8976 H         1 <0>         0.1130
     28 H6          2.4273   -2.2146   -2.3948 H         1 <0>         0.1200
     29 H7          4.7392   -1.4101   -2.3625 H         1 <0>         0.0856
     30 H8          3.6384   -0.0253   -2.1660 H         1 <0>         0.0691
     31 H9          5.6113    0.4786   -2.6390 H         1 <0>         0.1261
     32 H10         7.5299    2.0179   -2.7285 H         1 <0>         0.1248
     33 H11         8.7046    2.6448   -0.6585 H         1 <0>         0.1240
     34 H12         7.9639    1.7347    1.5051 H         1 <0>         0.1295
     35 H13         6.0391    0.2037    1.6043 H         1 <0>         0.1309
     36 H14        -1.8735   -0.6973    2.0913 H         1 <0>         0.1513
     37 H15        -4.2351   -1.6344    1.1747 H         1 <0>         0.1549
     38 H16        -4.0993   -1.6298   -1.4421 H         1 <0>         0.2094
@<TRIPOS>BOND
     1    1    2 1
     2    1   23 1
     3    1   24 1
     4    1   25 1
     5    2    8 1
     6    2    3 1
     7    2   18 1
     8    3    4 2
     9    3    5 am
    10    5    6 am
    11    5    9 1
    12    6    7 2
    13    6    8 am
    14    8   26 1
    15    9   10 1
    16    9   27 1
    17    9   28 1
    18   10   11 1
    19   10   29 1
    20   10   30 1
    21   11   12 1
    22   12   17 ar
    23   12   13 ar
    24   13   14 ar
    25   13   31 1
    26   14   15 ar
    27   14   32 1
    28   15   16 ar
    29   15   33 1
    30   16   17 ar
    31   16   34 1
    32   17   35 1
    33   18   22 1
    34   18   19 2
    35   19   20 1
    36   19   36 1
    37   20   21 2
    38   20   37 1
    39   21   22 1
    40   21   38 1
@<TRIPOS>MOLECULE
ZINC08236261
   34    35     0     0     0
SMALL
USER_CHARGES

@<TRIPOS>ATOM
      1 C1         -0.0225    1.5332    0.0044 C.3       1 <0>        -0.1643
      2 C2         -0.0013    0.0033   -0.0021 C.3       1 <0>         0.1264
      3 C3          0.7383   -0.5017    1.2383 C.3       1 <0>        -0.1641
      4 N1         -1.3756   -0.5041    0.0083 N.pl3     1 <0>        -0.4553
      5 C4         -2.3322   -0.2778    0.9591 C.2       1 <0>         0.1666
      6 N2         -3.4085   -0.9094    0.5845 N.2       1 <0>        -0.2871
      7 N3         -3.1994   -1.5150   -0.5297 N.2       1 <0>        -0.2979
      8 C5         -1.9690   -1.2963   -0.9321 C.2       1 <0>         0.1409
      9 S1         -1.2236   -1.9115   -2.4054 S.3       1 <0>         0.0770
     10 C6         -2.5402   -2.8804   -3.1918 C.3       1 <0>        -0.1457
     11 C7         -2.0282   -3.4707   -4.4804 C.2       1 <0>         0.5272
     12 O1         -0.8875   -3.2587   -4.8335 O.2       1 <0>        -0.4498
     13 N4         -2.8380   -4.2343   -5.2404 N.am      1 <0>        -0.6542
     14 C8         -2.4003   -4.6928   -6.4826 C.ar      1 <0>         0.3639
     15 C9         -3.2763   -5.3901   -7.3068 C.ar      1 <0>        -0.1908
     16 C10        -2.8297   -5.8396   -8.5367 C.ar      1 <0>        -0.0361
     17 C11        -1.5155   -5.5749   -8.9016 C.ar      1 <0>        -0.1203
     18 C12        -0.7003   -4.8760   -8.0320 C.ar      1 <0>         0.1511
     19 N5         -1.1567   -4.4554   -6.8677 N.ar      1 <0>        -0.4630
     20 Cl1        -0.9041   -6.1169  -10.4333 Cl        1 <0>        -0.0513
     21 H1          1.0000    1.9107   -0.0034 H         1 <0>         0.0856
     22 H2         -0.5494    1.8930   -0.8794 H         1 <0>         0.0674
     23 H3         -0.5331    1.8857    0.9005 H         1 <0>         0.0682
     24 H4          0.5094   -0.3492   -0.8983 H         1 <0>         0.1082
     25 H5          1.7608   -0.1242    1.2305 H         1 <0>         0.0856
     26 H6          0.2277   -0.1492    2.1345 H         1 <0>         0.0682
     27 H7          0.7534   -1.5916    1.2337 H         1 <0>         0.0674
     28 H8         -2.2167    0.3145    1.8548 H         1 <0>         0.2208
     29 H9         -2.8501   -3.6829   -2.5224 H         1 <0>         0.1304
     30 H10        -3.3917   -2.2332   -3.4017 H         1 <0>         0.1308
     31 H11        -3.7253   -4.4649   -4.9235 H         1 <0>         0.4241
     32 H12        -4.2917   -5.5786   -6.9911 H         1 <0>         0.1484
     33 H13        -3.4875   -6.3842   -9.1978 H         1 <0>         0.1514
     34 H14         0.3221   -4.6675   -8.3108 H         1 <0>         0.1705
@<TRIPOS>BOND
     1    1    2 1
     2    1   21 1
     3    1   22 1
     4    1   23 1
     5    2    3 1
     6    2    4 1
     7    2   24 1
     8    3   25 1
     9    3   26 1
    10    3   27 1
    11    4    8 1
    12    4    5 1
    13    5    6 2
    14    5   28 1
    15    6    7 1
    16    7    8 2
    17    8    9 1
    18    9   10 1
    19   10   11 1
    20   10   29 1
    21   10   30 1
    22   11   12 2
    23   11   13 am
    24   13   14 1
    25   13   31 1
    26   14   19 ar
    27   14   15 ar
    28   15   16 ar
    29   15   32 1
    30   16   17 ar
    31   16   33 1
    32   17   18 ar
    33   17   20 1
    34   18   19 ar
    35   18   34 1
@<TRIPOS>MOLECULE
ZINC66269447
   38    39     0     0     0
SMALL
USER_CHARGES

@<TRIPOS>ATOM
      1 C1         -0.5967    1.8365   -0.4004 C.3       1 <0>         0.0539
      2 O1         -0.3997    0.4248   -0.2995 O.3       1 <0>        -0.3606
      3 C2         -1.5034   -0.3423   -0.2204 C.2       1 <0>         0.6710
      4 O2         -2.6038    0.1729   -0.2365 O.2       1 <0>        -0.5611
      5 N1         -1.3877   -1.6815   -0.1232 N.am      1 <0>        -0.5875
      6 C3         -0.1205   -2.4341   -0.0864 C.3       1 <0>         0.1024
      7 C4         -0.4870   -3.8527   -0.5893 C.3       1 <0>        -0.1305
      8 C5         -1.8945   -4.0499    0.0332 C.3       1 <0>        -0.1218
      9 C6         -2.5042   -2.6335   -0.0301 C.3       1 <0>         0.1418
     10 H1         -3.1412   -2.5451   -0.9102 H         1 <0>         0.1062
     11 C7         -3.3067   -2.3619    1.2162 C.2       1 <0>         0.5083
     12 O3         -2.8229   -1.7132    2.1197 O.2       1 <0>        -0.5015
     13 N2         -4.5620   -2.8399    1.3270 N.am      1 <0>        -0.6688
     14 C8         -5.2680   -2.6831    2.5270 C.ar      1 <0>         0.1261
     15 C9         -6.6456   -2.5112    2.5050 C.ar      1 <0>        -0.1096
     16 C10        -7.3408   -2.3572    3.6881 C.ar      1 <0>        -0.1127
     17 C11        -6.6632   -2.3738    4.8984 C.ar      1 <0>         0.0892
     18 C12        -5.2868   -2.5451    4.9211 C.ar      1 <0>        -0.1684
     19 C13        -4.5911   -2.7054    3.7391 C.ar      1 <0>        -0.0827
     20 O4         -7.3483   -2.2216    6.0630 O.3       1 <0>        -0.3202
     21 C14        -6.5869   -2.2488    7.2719 C.3       1 <0>         0.4113
     22 F1         -5.9287   -3.4785    7.3809 F         1 <0>        -0.1986
     23 F2         -5.6442   -1.2153    7.2527 F         1 <0>        -0.1975
     24 H2          0.3709    2.3353   -0.4569 H         1 <0>         0.1057
     25 H3         -1.1735    2.0597   -1.2980 H         1 <0>         0.0614
     26 H4         -1.1378    2.1915    0.4767 H         1 <0>         0.0618
     27 H5          0.6130   -1.9745   -0.7488 H         1 <0>         0.0892
     28 H6          0.2637   -2.4803    0.9326 H         1 <0>         0.0759
     29 H7         -0.5337   -3.8813   -1.6779 H         1 <0>         0.0851
     30 H8          0.2153   -4.5951   -0.2103 H         1 <0>         0.0955
     31 H9         -2.4825   -4.7522   -0.5577 H         1 <0>         0.1009
     32 H10        -1.8153   -4.3859    1.0671 H         1 <0>         0.0861
     33 H11        -4.9766   -3.2925    0.5759 H         1 <0>         0.4123
     34 H12        -7.1732   -2.4975    1.5627 H         1 <0>         0.1380
     35 H13        -8.4124   -2.2234    3.6711 H         1 <0>         0.1404
     36 H14        -4.7597   -2.5572    5.8637 H         1 <0>         0.1366
     37 H15        -3.5201   -2.8436    3.7571 H         1 <0>         0.1389
     38 H16        -7.2535   -2.1167    8.1242 H         1 <0>         0.1832
@<TRIPOS>BOND
     1    1    2 1
     2    1   24 1
     3    1   25 1
     4    1   26 1
     5    2    3 1
     6    3    4 2
     7    3    5 am
     8    5    9 1
     9    5    6 1
    10    6    7 1
    11    6   27 1
    12    6   28 1
    13    7    8 1
    14    7   29 1
    15    7   30 1
    16    8    9 1
    17    8   31 1
    18    8   32 1
    19    9   10 1
    20    9   11 1
    21   11   12 2
    22   11   13 am
    23   13   14 1
    24   13   33 1
    25   14   19 ar
    26   14   15 ar
    27   15   16 ar
    28   15   34 1
    29   16   17 ar
    30   16   35 1
    31   17   18 ar
    32   17   20 1
    33   18   19 ar
    34   18   36 1
    35   19   37 1
    36   20   21 1
    37   21   22 1
    38   21   23 1
    39   21   38 1
@<TRIPOS>MOLECULE
ZINC20900867
   43    45     0     0     0
SMALL
USER_CHARGES
5-(3,4-dimethylphenyl)-4-methyl-N-(o-tolyl)-1,1-dioxo-isothiazol-3-amine
@<TRIPOS>ATOM
      1 C1         -4.1663    4.0485   -1.8622 C.3       1 <0>        -0.0852
      2 C2         -4.9311    3.4790   -0.6953 C.ar      1 <0>        -0.1152
      3 C3         -6.2643    3.7957   -0.5216 C.ar      1 <0>        -0.1164
      4 C4         -6.9653    3.2782    0.5520 C.ar      1 <0>        -0.1694
      5 C5         -6.3360    2.4376    1.4522 C.ar      1 <0>        -0.1189
      6 C6         -5.0048    2.1128    1.2816 C.ar      1 <0>        -0.1462
      7 C7         -4.2976    2.6310    0.2039 C.ar      1 <0>         0.1574
      8 N1         -2.9499    2.3042    0.0282 N.2       1 <0>        -0.5824
      9 C8         -2.1719    1.9700    1.1201 C.2       1 <0>         0.3692
     10 N2         -2.6479    2.0640    2.3301 N.2       1 <0>        -0.9247
     11 S1         -1.3920    1.5761    3.3230 S.o2      1 <0>         2.5149
     12 O1         -1.7713    0.3486    3.9301 O.2       1 <0>        -0.9868
     13 O2         -0.9529    2.7108    4.0571 O.2       1 <0>        -0.9895
     14 C9         -0.1566    1.2143    2.0921 C.2       1 <0>        -0.6215
     15 C10        -0.8113    1.5023    0.9440 C.2       1 <0>         0.0027
     16 C11        -0.1732    1.3546   -0.4132 C.3       1 <0>        -0.1012
     17 C12         1.2214    0.7274    2.2766 C.ar      1 <0>         0.0254
     18 C13         2.0799    1.3714    3.1725 C.ar      1 <0>        -0.1178
     19 C14         3.3667    0.9066    3.3437 C.ar      1 <0>        -0.1124
     20 C15         3.8124   -0.1883    2.6236 C.ar      1 <0>        -0.0968
     21 C16         2.9702   -0.8274    1.7310 C.ar      1 <0>        -0.0881
     22 C17         1.6787   -0.3773    1.5528 C.ar      1 <0>        -0.1038
     23 C18         3.4652   -2.0186    0.9518 C.3       1 <0>        -0.1124
     24 C19         5.2221   -0.6864    2.8124 C.3       1 <0>        -0.1164
     25 H1         -4.8310    4.6919   -2.4574 H         1 <0>         0.0436
     26 H2         -3.7915    3.2273   -2.4908 H         1 <0>         0.0619
     27 H3         -3.3182    4.6420   -1.4902 H         1 <0>         0.0582
     28 H4         -6.7586    4.4520   -1.2226 H         1 <0>         0.1069
     29 H5         -8.0063    3.5312    0.6882 H         1 <0>         0.1036
     30 H6         -6.8864    2.0352    2.2898 H         1 <0>         0.1048
     31 H7         -4.5141    1.4564    1.9849 H         1 <0>         0.1429
     32 H8          0.8567    0.9865   -0.2960 H         1 <0>         0.0668
     33 H9         -0.1582    2.3310   -0.9195 H         1 <0>         0.0839
     34 H10        -0.7524    0.6385   -1.0147 H         1 <0>         0.0838
     35 H11         1.7349    2.2283    3.7320 H         1 <0>         0.1311
     36 H12         4.0300    1.4007    4.0382 H         1 <0>         0.1232
     37 H13         1.0224   -0.8773    0.8559 H         1 <0>         0.1242
     38 H14         2.6613   -2.3894    0.2989 H         1 <0>         0.0645
     39 H15         3.7669   -2.8136    1.6497 H         1 <0>         0.0681
     40 H16         4.3287   -1.7222    0.3382 H         1 <0>         0.0677
     41 H17         5.3937   -1.5567    2.1619 H         1 <0>         0.0673
     42 H18         5.3701   -0.9787    3.8625 H         1 <0>         0.0667
     43 H19         5.9314    0.1126    2.5507 H         1 <0>         0.0663
@<TRIPOS>BOND
     1    1    2 1
     2    1   25 1
     3    1   26 1
     4    1   27 1
     5    2    7 ar
     6    2    3 ar
     7    3    4 ar
     8    3   28 1
     9    4    5 ar
    10    4   29 1
    11    5    6 ar
    12    5   30 1
    13    6    7 ar
    14    6   31 1
    15    7    8 1
    16    8    9 1
    17    9   15 1
    18    9   10 2
    19   10   11 1
    20   11   12 2
    21   11   13 2
    22   11   14 1
    23   14   15 2
    24   14   17 1
    25   15   16 1
    26   16   32 1
    27   16   33 1
    28   16   34 1
    29   17   22 ar
    30   17   18 ar
    31   18   19 ar
    32   18   35 1
    33   19   20 ar
    34   19   36 1
    35   20   21 ar
    36   20   24 1
    37   21   22 ar
    38   21   23 1
    39   22   37 1
    40   23   38 1
    41   23   39 1
    42   23   40 1
    43   24   41 1
    44   24   42 1
    45   24   43 1
@<TRIPOS>MOLECULE
ZINC32585742
   30    31     0     0     0
SMALL
USER_CHARGES
3-chloro-4-(difluoromethoxy)-N-(2-fluorophenyl)benzenesulfonamide
@<TRIPOS>ATOM
      1 C1         -3.3013   -4.3484    2.8098 C.ar      1 <0>        -0.0972
      2 C2         -3.0297   -3.9801    4.1146 C.ar      1 <0>        -0.1726
      3 C3         -1.7253   -3.9595    4.5734 C.ar      1 <0>        -0.1332
      4 C4         -0.6881   -4.3074    3.7277 C.ar      1 <0>         0.0455
      5 C5         -0.9591   -4.6786    2.4150 C.ar      1 <0>         0.2056
      6 C6         -2.2699   -4.6931    1.9578 C.ar      1 <0>        -0.2219
      7 N1          0.0868   -5.0308    1.5561 N.2       1 <0>        -1.0473
      8 S1          0.0120   -4.6277   -0.0483 S.o2      1 <0>         2.5881
      9 O1         -1.2259   -5.1273   -0.5354 O.2       1 <0>        -1.0315
     10 O2          1.2600   -4.9974   -0.6186 O.2       1 <0>        -0.9901
     11 C7         -0.0829   -2.8707   -0.1402 C.ar      1 <0>        -0.6663
     12 C8          1.0759   -2.1200   -0.2161 C.ar      1 <0>         0.0159
     13 C9          1.0048   -0.7422   -0.2882 C.ar      1 <0>        -0.2043
     14 C10        -0.2304   -0.1112   -0.2844 C.ar      1 <0>         0.1430
     15 C11        -1.3924   -0.8662   -0.2023 C.ar      1 <0>        -0.0732
     16 C12        -1.3157   -2.2451   -0.1366 C.ar      1 <0>         0.0152
     17 Cl1        -2.9403   -0.0803   -0.1894 Cl        1 <0>        -0.0574
     18 O3         -0.3028    1.2443   -0.3553 O.3       1 <0>        -0.3106
     19 C13         0.9335    1.9568   -0.4317 C.3       1 <0>         0.4084
     20 F1          1.7020    1.6803    0.7042 F         1 <0>        -0.1967
     21 F2          1.6321    1.5573   -1.5760 F         1 <0>        -0.1984
     22 F3          0.5863   -4.2864    4.1756 F         1 <0>        -0.1448
     23 H1         -4.3213   -4.3630    2.4550 H         1 <0>         0.1107
     24 H2         -3.8381   -3.7076    4.7768 H         1 <0>         0.1116
     25 H3         -1.5165   -3.6710    5.5931 H         1 <0>         0.1163
     26 H4         -2.4833   -4.9765    0.9377 H         1 <0>         0.1534
     27 H5          2.0377   -2.6113   -0.2195 H         1 <0>         0.1478
     28 H6          1.9105   -0.1567   -0.3472 H         1 <0>         0.1431
     29 H7         -2.2193   -2.8337   -0.0775 H         1 <0>         0.1545
     30 H8          0.7533    3.0406   -0.4848 H         1 <0>         0.1864
@<TRIPOS>BOND
     1    1    6 ar
     2    1    2 ar
     3    1   23 1
     4    2    3 ar
     5    2   24 1
     6    3    4 ar
     7    3   25 1
     8    4    5 ar
     9    4   22 1
    10    5    6 ar
    11    5    7 1
    12    6   26 1
    13    7    8 1
    14    8    9 2
    15    8   10 2
    16    8   11 1
    17   11   16 ar
    18   11   12 ar
    19   12   13 ar
    20   12   27 1
    21   13   14 ar
    22   13   28 1
    23   14   15 ar
    24   14   18 1
    25   15   16 ar
    26   15   17 1
    27   16   29 1
    28   18   19 1
    29   19   20 1
    30   19   21 1
    31   19   30 1
@<TRIPOS>MOLECULE
ZINC37367255
   37    39     0     0     0
SMALL
USER_CHARGES

@<TRIPOS>ATOM
      1 C1         -0.0167    1.3782    0.0096 C.ar      1 <0>        -0.0879
      2 C2          1.1692    2.0867    0.0021 C.ar      1 <0>        -0.1153
      3 C3          2.3811    1.4097   -0.0131 C.ar      1 <0>         0.1932
      4 C4          2.3976    0.0213   -0.0208 C.ar      1 <0>        -0.1254
      5 C5          1.2083   -0.6823   -0.0132 C.ar      1 <0>        -0.0606
      6 C6          0.0021   -0.0041    0.0020 C.ar      1 <0>        -0.1169
      7 Br1         1.2291   -2.5731   -0.0236 Br        1 <0>        -0.0452
      8 N1          3.5856    2.1262   -0.0212 N.pl3     1 <0>        -0.3359
      9 C7          4.8178    1.5899   -0.0413 C.2       1 <0>         0.0648
     10 C8          5.7230    2.6358   -0.0427 C.2       1 <0>        -0.2532
     11 C9          4.9728    3.8353   -0.0224 C.2       1 <0>         0.1338
     12 N2          3.7073    3.5200   -0.0159 N.2       1 <0>        -0.3118
     13 C10         5.5372    5.2326   -0.0159 C.3       1 <0>        -0.0196
     14 C11         5.0745    5.9637    1.2460 C.3       1 <0>        -0.1038
     15 C12         5.6475    7.3823    1.2525 C.3       1 <0>        -0.1175
     16 C13         5.1549    8.1371    0.0162 C.3       1 <0>        -0.1163
     17 C14         5.6176    7.4060   -1.2457 C.3       1 <0>        -0.1175
     18 C15         5.0446    5.9874   -1.2522 C.3       1 <0>        -0.1039
     19 C16         7.1885    2.5225   -0.0617 C.2       1 <0>         0.5518
     20 O1          7.7166    1.4188   -0.0789 O.co2     1 <0>        -0.6933
     21 O2          7.8802    3.5318   -0.0604 O.co2     1 <0>        -0.6814
     22 H1         -0.9595    1.9047    0.0260 H         1 <0>         0.1379
     23 H2          1.1535    3.1666    0.0077 H         1 <0>         0.1431
     24 H3          3.3389   -0.5081   -0.0330 H         1 <0>         0.1413
     25 H4         -0.9264   -0.5557    0.0079 H         1 <0>         0.1346
     26 H5          5.0571    0.5368   -0.0535 H         1 <0>         0.1782
     27 H6          6.6261    5.1847   -0.0294 H         1 <0>         0.1311
     28 H7          3.9856    6.0116    1.2595 H         1 <0>         0.0583
     29 H8          5.4255    5.4260    2.1268 H         1 <0>         0.0594
     30 H9          5.3179    7.9032    2.1515 H         1 <0>         0.0569
     31 H10         6.7364    7.3344    1.2390 H         1 <0>         0.0665
     32 H11         4.0660    8.1850    0.0297 H         1 <0>         0.0572
     33 H12         5.5632    9.1478    0.0209 H         1 <0>         0.0563
     34 H13         5.2667    7.9437   -2.1264 H         1 <0>         0.0569
     35 H14         6.7065    7.3581   -1.2591 H         1 <0>         0.0665
     36 H15         5.3743    5.4665   -2.1512 H         1 <0>         0.0594
     37 H16         3.9557    6.0353   -1.2387 H         1 <0>         0.0583
@<TRIPOS>BOND
     1    1    6 ar
     2    1    2 ar
     3    1   22 1
     4    2    3 ar
     5    2   23 1
     6    3    4 ar
     7    3    8 1
     8    4    5 ar
     9    4   24 1
    10    5    6 ar
    11    5    7 1
    12    6   25 1
    13    8   12 1
    14    8    9 1
    15    9   10 2
    16    9   26 1
    17   10   11 1
    18   10   19 1
    19   11   12 2
    20   11   13 1
    21   13   18 1
    22   13   14 1
    23   13   27 1
    24   14   15 1
    25   14   28 1
    26   14   29 1
    27   15   16 1
    28   15   30 1
    29   15   31 1
    30   16   17 1
    31   16   32 1
    32   16   33 1
    33   17   18 1
    34   17   34 1
    35   17   35 1
    36   18   36 1
    37   18   37 1
    38   19   20 2
    39   19   21 1
@<TRIPOS>MOLECULE
ZINC46064197
   27    28     0     0     0
SMALL
USER_CHARGES

@<TRIPOS>ATOM
      1 C1         -0.0167    1.3806    0.0096 C.ar      1 <0>        -0.0722
      2 C2          1.1665    2.0892    0.0021 C.ar      1 <0>        -0.0852
      3 C3          2.3851    1.4075   -0.0131 C.ar      1 <0>         0.0876
      4 C4          2.3973    0.0108   -0.0207 C.ar      1 <0>        -0.5694
      5 C5          1.2077   -0.6861   -0.0131 C.ar      1 <0>        -0.0200
      6 C6          0.0021   -0.0041    0.0020 C.ar      1 <0>        -0.0364
      7 Cl1        -1.4915   -0.8888    0.0120 Cl        1 <0>        -0.0598
      8 S1          3.9297   -0.8586   -0.0405 S.o2      1 <0>         2.5923
      9 O1          4.7352   -0.2853    0.9802 O.2       1 <0>        -1.0080
     10 O2          3.6109   -2.2430   -0.0718 O.2       1 <0>        -1.0134
     11 N1          4.6713   -0.5111   -1.4798 N.2       1 <0>        -1.0703
     12 C7          5.9191   -1.0685   -1.7760 C.ar      1 <0>         0.2639
     13 C8          6.5350   -1.9179   -0.8671 C.ar      1 <0>        -0.2370
     14 C9          7.7687   -2.4674   -1.1628 C.ar      1 <0>         0.0193
     15 C10         8.3900   -2.1718   -2.3634 C.ar      1 <0>        -0.1883
     16 C11         7.7797   -1.3261   -3.2714 C.ar      1 <0>        -0.1027
     17 C12         6.5432   -0.7776   -2.9844 C.ar      1 <0>         0.0381
     18 F1          5.9446    0.0437   -3.8744 F         1 <0>        -0.1400
     19 Cl2         8.5396   -3.5293   -0.0262 Cl        1 <0>        -0.0959
     20 C13         3.6171    2.1373   -0.0214 C.1       1 <0>         0.2267
     21 N2          4.5945    2.7163   -0.0280 N.1       1 <0>        -0.3577
     22 H1         -0.9598    1.9067    0.0260 H         1 <0>         0.1485
     23 H2          1.1505    3.1691    0.0077 H         1 <0>         0.1494
     24 H3          1.2158   -1.7661   -0.0193 H         1 <0>         0.1599
     25 H4          6.0510   -2.1490    0.0704 H         1 <0>         0.1165
     26 H5          9.3539   -2.6022   -2.5916 H         1 <0>         0.1249
     27 H6          8.2674   -1.0970   -4.2074 H         1 <0>         0.1293
@<TRIPOS>BOND
     1    1    6 ar
     2    1    2 ar
     3    1   22 1
     4    2    3 ar
     5    2   23 1
     6    3    4 ar
     7    3   20 1
     8    4    5 ar
     9    4    8 1
    10    5    6 ar
    11    5   24 1
    12    6    7 1
    13    8    9 2
    14    8   10 2
    15    8   11 1
    16   11   12 1
    17   12   17 ar
    18   12   13 ar
    19   13   14 ar
    20   13   25 1
    21   14   15 ar
    22   14   19 1
    23   15   16 ar
    24   15   26 1
    25   16   17 ar
    26   16   27 1
    27   17   18 1
    28   20   21 3
@<TRIPOS>MOLECULE
ZINC61689582
   34    36     0     0     0
SMALL
USER_CHARGES

@<TRIPOS>ATOM
      1 C1          0.5315    0.5131    1.1491 C.ar      1 <0>        -0.0573
      2 C2          1.7074    1.2346    1.1180 C.ar      1 <0>        -0.1623
      3 C3          2.3451    1.4722   -0.0883 C.ar      1 <0>         0.1219
      4 C4          1.8057    0.9868   -1.2699 C.ar      1 <0>        -0.1332
      5 C5          0.6299    0.2642   -1.2481 C.ar      1 <0>         0.0215
      6 C6         -0.0149    0.0230   -0.0358 C.ar      1 <0>         0.0042
      7 C7         -1.2781   -0.7527   -0.0070 C.2       1 <0>         0.1237
      8 C8         -1.5618   -1.9876   -0.7471 C.2       1 <0>        -0.2562
      9 C9         -2.8533   -2.3514   -0.4145 C.2       1 <0>         0.0724
     10 N1         -3.3289   -1.4394    0.4444 N.pl3     1 <0>        -0.3698
     11 N2         -2.3541   -0.4685    0.6900 N.2       1 <0>        -0.3000
     12 C10        -4.6672   -1.4598    1.0401 C.3       1 <0>         0.1593
     13 C11        -5.1364   -2.9163    1.2356 C.3       1 <0>        -0.1397
     14 C12        -6.6520   -2.8729    0.9192 C.3       1 <0>        -0.1202
     15 C13        -6.7262   -1.8729   -0.2614 C.3       1 <0>        -0.1251
     16 C14        -5.6780   -0.7964    0.0883 C.3       1 <0>        -0.1371
     17 C15        -0.6548   -2.6955   -1.6595 C.2       1 <0>         0.5489
     18 O1         -1.0585   -3.6573   -2.2994 O.co2     1 <0>        -0.6962
     19 O2          0.5049   -2.3236   -1.7801 O.co2     1 <0>        -0.6796
     20 Br1         2.6816    1.3157   -2.9132 Br        1 <0>        -0.0395
     21 F1          3.4959    2.1795   -0.1139 F         1 <0>        -0.1321
     22 H1          0.0375    0.3247    2.0908 H         1 <0>         0.1353
     23 H2          2.1309    1.6149    2.0358 H         1 <0>         0.1405
     24 H3          0.2100   -0.1134   -2.1687 H         1 <0>         0.1530
     25 H4         -3.3847   -3.2168   -0.7820 H         1 <0>         0.1750
     26 H5         -4.6576   -0.9382    1.9971 H         1 <0>         0.0989
     27 H6         -4.6206   -3.5797    0.5414 H         1 <0>         0.0844
     28 H7         -4.9705   -3.2357    2.2645 H         1 <0>         0.0770
     29 H8         -7.0116   -3.8561    0.6158 H         1 <0>         0.0734
     30 H9         -7.2150   -2.5019    1.7756 H         1 <0>         0.0701
     31 H10        -6.4672   -2.3678   -1.1973 H         1 <0>         0.0705
     32 H11        -7.7205   -1.4308   -0.3249 H         1 <0>         0.0688
     33 H12        -6.1596    0.0466    0.5837 H         1 <0>         0.0746
     34 H13        -5.1729   -0.4593   -0.8168 H         1 <0>         0.0750
@<TRIPOS>BOND
     1    1    6 ar
     2    1    2 ar
     3    1   22 1
     4    2    3 ar
     5    2   23 1
     6    3    4 ar
     7    3   21 1
     8    4    5 ar
     9    4   20 1
    10    5    6 ar
    11    5   24 1
    12    6    7 1
    13    7   11 2
    14    7    8 1
    15    8    9 2
    16    8   17 1
    17    9   10 1
    18    9   25 1
    19   10   11 1
    20   10   12 1
    21   12   16 1
    22   12   13 1
    23   12   26 1
    24   13   14 1
    25   13   27 1
    26   13   28 1
    27   14   15 1
    28   14   29 1
    29   14   30 1
    30   15   16 1
    31   15   31 1
    32   15   32 1
    33   16   33 1
    34   16   34 1
    35   17   18 2
    36   17   19 1
@<TRIPOS>MOLECULE
ZINC21511165
   35    36     0     0     0
SMALL
USER_CHARGES
3-amino-5-chloro-N-(4,6-dimethylpyrimidin-2-yl)-4-methyl-benzenesulfonamide
@<TRIPOS>ATOM
      1 C1         -0.9341   -5.4700    2.2722 C.3       1 <0>        -0.1052
      2 C2          0.4564   -5.0981    2.7188 C.ar      1 <0>         0.2119
      3 C3          0.9548   -5.5668    3.9242 C.ar      1 <0>        -0.3312
      4 C4          2.2387   -5.2014    4.2973 C.ar      1 <0>         0.1998
      5 N1          2.9458   -4.4211    3.4968 N.ar      1 <0>        -0.5514
      6 C5          2.4397   -3.9901    2.3507 C.ar      1 <0>         0.5903
      7 N2          1.2141   -4.3165    1.9674 N.ar      1 <0>        -0.6097
      8 N3          3.2074   -3.1750    1.5371 N.2       1 <0>        -1.0092
      9 S1          2.7659   -2.9269   -0.0395 S.o2      1 <0>         2.6231
     10 O1          2.5057   -4.2087   -0.5949 O.2       1 <0>        -1.0183
     11 O2          3.7244   -2.0365   -0.5943 O.2       1 <0>        -0.9952
     12 C6          1.2293   -2.0648   -0.0208 C.ar      1 <0>        -0.5952
     13 C7          1.2134   -0.6836   -0.0132 C.ar      1 <0>        -0.1016
     14 C8          0.0021   -0.0041    0.0020 C.ar      1 <0>         0.2038
     15 C9         -1.1904   -0.7164    0.0153 C.ar      1 <0>        -0.1340
     16 C10        -1.1680   -2.0981    0.0019 C.ar      1 <0>        -0.0207
     17 C11         0.0413   -2.7716   -0.0133 C.ar      1 <0>        -0.0345
     18 Cl1        -2.6574   -2.9899    0.0112 Cl        1 <0>        -0.0818
     19 C12        -2.5069    0.0167    0.0382 C.3       1 <0>        -0.1131
     20 N4         -0.0169    1.3925    0.0097 N.pl3     1 <0>        -0.8994
     21 C13         2.8221   -5.6876    5.5989 C.3       1 <0>        -0.1006
     22 H1         -1.3998   -6.1208    3.0269 H         1 <0>         0.0671
     23 H2         -0.8804   -6.0028    1.3114 H         1 <0>         0.0765
     24 H3         -1.5370   -4.5578    2.1524 H         1 <0>         0.0759
     25 H4          0.3556   -6.2025    4.5592 H         1 <0>         0.1210
     26 H5          2.1422   -0.1324   -0.0187 H         1 <0>         0.1329
     27 H6          0.0567   -3.8515   -0.0189 H         1 <0>         0.1505
     28 H7         -3.3317   -0.7110    0.0461 H         1 <0>         0.0750
     29 H8         -2.5878    0.6530   -0.8555 H         1 <0>         0.0640
     30 H9         -2.5620    0.6432    0.9406 H         1 <0>         0.0641
     31 H10        -0.9769    1.9294    0.0217 H         1 <0>         0.4096
     32 H11         0.9281    1.9554    0.0037 H         1 <0>         0.4165
     33 H12         3.8423   -5.2926    5.7137 H         1 <0>         0.0746
     34 H13         2.8525   -6.7872    5.5990 H         1 <0>         0.0726
     35 H14         2.1974   -5.3379    6.4340 H         1 <0>         0.0720
@<TRIPOS>BOND
     1    1    2 1
     2    1   22 1
     3    1   23 1
     4    1   24 1
     5    2    7 ar
     6    2    3 ar
     7    3    4 ar
     8    3   25 1
     9    4    5 ar
    10    4   21 1
    11    5    6 ar
    12    6    7 ar
    13    6    8 1
    14    8    9 1
    15    9   10 2
    16    9   11 2
    17    9   12 1
    18   12   17 ar
    19   12   13 ar
    20   13   14 ar
    21   13   26 1
    22   14   15 ar
    23   14   20 1
    24   15   16 ar
    25   15   19 1
    26   16   17 ar
    27   16   18 1
    28   17   27 1
    29   19   28 1
    30   19   29 1
    31   19   30 1
    32   20   31 1
    33   20   32 1
    34   21   33 1
    35   21   34 1
    36   21   35 1
@<TRIPOS>MOLECULE
ZINC46704720
   33    35     0     0     0
SMALL
USER_CHARGES

@<TRIPOS>ATOM
      1 C1         -0.0167    1.3786    0.0096 C.ar      1 <0>        -0.0314
      2 C2          1.1689    2.0869    0.0021 C.ar      1 <0>        -0.1821
      3 C3          2.3811    1.4088   -0.0131 C.ar      1 <0>         0.3055
      4 C4          2.3964    0.0198   -0.0206 C.ar      1 <0>        -0.2665
      5 C5          1.2071   -0.6823   -0.0130 C.ar      1 <0>        -0.0145
      6 C6          0.0021   -0.0041    0.0020 C.ar      1 <0>        -0.2969
      7 C7         -1.2936   -0.7736    0.0107 C.3       1 <0>         0.5166
      8 F1         -1.7076   -1.0046   -1.3055 F         1 <0>        -0.1897
      9 F2         -1.1049   -1.9973    0.6618 F         1 <0>        -0.1887
     10 F3         -2.2712   -0.0331    0.6839 F         1 <0>        -0.1887
     11 N1          3.5820    2.1220   -0.0212 N.2       1 <0>        -1.0802
     12 S1          5.0262    1.3117   -0.0392 S.o2      1 <0>         2.6067
     13 O1          5.1229    0.6264    1.2018 O.2       1 <0>        -1.0230
     14 O2          5.0987    0.6388   -1.2887 O.2       1 <0>        -1.0209
     15 C8          6.3041    2.5247   -0.0456 C.ar      1 <0>        -0.6066
     16 C9          6.7884    3.0094   -1.2486 C.ar      1 <0>        -0.0110
     17 C10         7.7899    3.9602   -1.2638 C.ar      1 <0>        -0.1286
     18 C11         8.3125    4.4314   -0.0690 C.ar      1 <0>         0.1247
     19 C12         7.8240    3.9426    1.1443 C.ar      1 <0>         0.0613
     20 C13         6.8144    2.9921    1.1496 C.ar      1 <0>        -0.0013
     21 N2          8.5300    4.5927    2.1538 N.am      1 <0>        -0.6385
     22 H1          8.4102    4.4590    3.1070 H         1 <0>         0.4369
     23 C14         9.4075    5.4380    1.5809 C.2       1 <0>         0.6855
     24 O3         10.1806    6.1597    2.1828 O.2       1 <0>        -0.5613
     25 N3          9.3002    5.3634    0.2409 N.am      1 <0>        -0.6417
     26 H2          9.8217    5.8719   -0.3996 H         1 <0>         0.4353
     27 H3         -0.9595    1.9052    0.0260 H         1 <0>         0.1174
     28 H4          1.1535    3.1668    0.0077 H         1 <0>         0.1235
     29 H5          3.3371   -0.5105   -0.0328 H         1 <0>         0.1074
     30 H6          1.2182   -1.7622   -0.0189 H         1 <0>         0.1148
     31 H7          6.3815    2.6421   -2.1791 H         1 <0>         0.1502
     32 H8          8.1655    4.3357   -2.2042 H         1 <0>         0.1382
     33 H9          6.4311    2.6149    2.0862 H         1 <0>         0.1476
@<TRIPOS>BOND
     1    1    6 ar
     2    1    2 ar
     3    1   27 1
     4    2    3 ar
     5    2   28 1
     6    3    4 ar
     7    3   11 1
     8    4    5 ar
     9    4   29 1
    10    5    6 ar
    11    5   30 1
    12    6    7 1
    13    7    8 1
    14    7    9 1
    15    7   10 1
    16   11   12 1
    17   12   13 2
    18   12   14 2
    19   12   15 1
    20   15   20 ar
    21   15   16 ar
    22   16   17 ar
    23   16   31 1
    24   17   18 ar
    25   17   32 1
    26   18   25 1
    27   18   19 ar
    28   19   20 ar
    29   19   21 1
    30   20   33 1
    31   21   22 1
    32   21   23 am
    33   23   24 2
    34   23   25 am
    35   25   26 1
@<TRIPOS>MOLECULE
ZINC51605352
   31    32     0     0     0
SMALL
USER_CHARGES

@<TRIPOS>ATOM
      1 C1         -0.0167    1.3786    0.0096 C.ar      1 <0>        -0.0622
      2 C2          1.1689    2.0869    0.0021 C.ar      1 <0>        -0.1803
      3 C3          2.3811    1.4088   -0.0131 C.ar      1 <0>         0.2843
      4 C4          2.3964    0.0198   -0.0206 C.ar      1 <0>        -0.2637
      5 C5          1.2071   -0.6823   -0.0130 C.ar      1 <0>        -0.0476
      6 C6          0.0021   -0.0041    0.0020 C.ar      1 <0>        -0.2084
      7 C7         -1.2936   -0.7736    0.0107 C.3       1 <0>         0.0340
      8 C8         -1.7292   -1.0167   -1.3742 C.1       1 <0>         0.2188
      9 N1         -2.0654   -1.2043   -2.4430 N.1       1 <0>        -0.4603
     10 N2          3.5820    2.1220   -0.0212 N.2       1 <0>        -1.0878
     11 S1          5.0262    1.3117   -0.0392 S.o2      1 <0>         2.6077
     12 O1          5.1229    0.6264    1.2018 O.2       1 <0>        -1.0236
     13 O2          5.0987    0.6388   -1.2887 O.2       1 <0>        -1.0288
     14 C9          6.3041    2.5247   -0.0456 C.ar      1 <0>        -0.7349
     15 C10         7.1736    2.6326    1.0250 C.ar      1 <0>         0.0876
     16 C11         8.1661    3.6032    0.9776 C.ar      1 <0>        -0.2354
     17 C12         8.2552    4.4258   -0.1287 C.ar      1 <0>         0.2230
     18 N3          7.4112    4.2998   -1.1350 N.ar      1 <0>        -0.5512
     19 C13         6.4559    3.3829   -1.1296 C.ar      1 <0>         0.5036
     20 N4          5.5926    3.2811   -2.2149 N.pl3     1 <0>        -0.8222
     21 Br1         9.3824    3.7969    2.4126 Br        1 <0>        -0.0474
     22 H1         -0.9595    1.9052    0.0260 H         1 <0>         0.1088
     23 H2          1.1535    3.1668    0.0077 H         1 <0>         0.1146
     24 H3          3.3371   -0.5105   -0.0328 H         1 <0>         0.0989
     25 H4          1.2182   -1.7622   -0.0189 H         1 <0>         0.1060
     26 H5         -1.1466   -1.7270    0.5180 H         1 <0>         0.1057
     27 H6         -2.0553   -0.1966    0.5352 H         1 <0>         0.1067
     28 H7          7.0824    1.9772    1.8786 H         1 <0>         0.1562
     29 H8          9.0252    5.1819   -0.1702 H         1 <0>         0.1667
     30 H9          4.8886    2.6138   -2.2137 H         1 <0>         0.4242
     31 H10         5.6945    3.8773   -2.9732 H         1 <0>         0.4072
@<TRIPOS>BOND
     1    1    6 ar
     2    1    2 ar
     3    1   22 1
     4    2    3 ar
     5    2   23 1
     6    3    4 ar
     7    3   10 1
     8    4    5 ar
     9    4   24 1
    10    5    6 ar
    11    5   25 1
    12    6    7 1
    13    7    8 1
    14    7   26 1
    15    7   27 1
    16    8    9 3
    17   10   11 1
    18   11   12 2
    19   11   13 2
    20   11   14 1
    21   14   19 ar
    22   14   15 ar
    23   15   16 ar
    24   15   28 1
    25   16   17 ar
    26   16   21 1
    27   17   18 ar
    28   17   29 1
    29   18   19 ar
    30   19   20 1
    31   20   30 1
    32   20   31 1
@<TRIPOS>MOLECULE
ZINC60059154
   31    34     0     0     0
SMALL
USER_CHARGES

@<TRIPOS>ATOM
      1 C1         -0.0165    1.3664    0.0096 C.ar      1 <0>        -0.1100
      2 C2          1.1563    2.1072    0.0023 C.ar      1 <0>        -0.1068
      3 C3          2.3728    1.4491   -0.0128 C.ar      1 <0>        -0.0635
      4 C4          2.4010    0.0773   -0.0205 C.ar      1 <0>        -0.1438
      5 C5          1.2272   -0.7099   -0.0135 C.ar      1 <0>         0.0962
      6 C6          0.0021   -0.0041    0.0020 C.ar      1 <0>        -0.0687
      7 N1          1.4189   -2.0472   -0.0226 N.2       1 <0>        -0.4972
      8 C7          2.6169   -2.5879   -0.0369 C.2       1 <0>         0.1246
      9 S1          3.6825   -1.1532   -0.0394 S.3       1 <0>        -0.0319
     10 S2          3.0595   -4.2934   -0.0498 S.3       1 <0>         0.1485
     11 C8          4.8734   -4.2759   -0.0674 C.3       1 <0>        -0.0823
     12 C9          5.3893   -5.6917   -0.0795 C.2       1 <0>         0.2493
     13 C10         6.7625   -5.9286   -0.0883 C.2       1 <0>        -0.3660
     14 C11         7.2167   -7.2199   -0.0993 C.2       1 <0>         0.4960
     15 O1          8.5436   -7.4818   -0.1076 O.3       1 <0>        -0.6516
     16 N2          6.3104   -8.2366   -0.1014 N.pl3     1 <0>        -0.3527
     17 C12         4.9715   -7.9641   -0.0925 C.2       1 <0>         0.5023
     18 N3          4.5401   -6.6978   -0.0764 N.2       1 <0>        -0.5543
     19 N4          4.3308   -9.1285   -0.0977 N.2       1 <0>        -0.5934
     20 C13         5.2129  -10.1260   -0.1094 C.2       1 <0>         0.4869
     21 N5          6.4331   -9.6320   -0.1121 N.2       1 <0>        -0.3873
     22 N6          4.8939  -11.4817   -0.1172 N.pl3     1 <0>        -0.8267
     23 H1         -0.9658    1.8812    0.0260 H         1 <0>         0.1321
     24 H2          1.1200    3.1866    0.0081 H         1 <0>         0.1360
     25 H3          3.2948    2.0116   -0.0190 H         1 <0>         0.1314
     26 H4         -0.9293   -0.5508    0.0084 H         1 <0>         0.1326
     27 H5          5.2231   -3.7540   -0.9581 H         1 <0>         0.1194
     28 H6          5.2404   -3.7630    0.8217 H         1 <0>         0.1193
     29 H7          7.4597   -5.1037   -0.0868 H         1 <0>         0.1435
     30 H8          3.9651  -11.7615   -0.1145 H         1 <0>         0.4091
     31 H9          5.6005  -12.1462   -0.1253 H         1 <0>         0.4089
@<TRIPOS>BOND
     1    1    6 ar
     2    1    2 ar
     3    1   23 1
     4    2    3 ar
     5    2   24 1
     6    3    4 ar
     7    3   25 1
     8    4    9 1
     9    4    5 ar
    10    5    6 ar
    11    5    7 1
    12    6   26 1
    13    7    8 2
    14    8    9 1
    15    8   10 1
    16   10   11 1
    17   11   12 1
    18   11   27 1
    19   11   28 1
    20   12   18 2
    21   12   13 1
    22   13   14 2
    23   13   29 1
    24   14   15 1
    25   14   16 1
    26   16   21 1
    27   16   17 1
    28   17   18 1
    29   17   19 2
    30   19   20 1
    31   20   21 2
    32   20   22 1
    33   22   30 1
    34   22   31 1
@<TRIPOS>MOLECULE
ZINC20066037
   47    48     0     0     0
SMALL
USER_CHARGES

@<TRIPOS>ATOM
      1 C1         -0.0184    1.5028    0.0103 C.3       1 <0>        -0.1061
      2 C2          0.0021   -0.0041    0.0020 C.ar      1 <0>        -0.1081
      3 C3          0.0057   -0.6887   -1.1989 C.ar      1 <0>        -0.1265
      4 C4          0.0245   -2.0709   -1.2065 C.ar      1 <0>        -0.1015
      5 C5          0.0400   -2.7685   -0.0132 C.ar      1 <0>        -0.0514
      6 C6          0.0373   -2.0839    1.1877 C.ar      1 <0>        -0.0937
      7 C7          0.0229   -0.7016    1.1953 C.ar      1 <0>        -0.1269
      8 C8          0.0595   -4.2753   -0.0215 C.3       1 <0>         0.1259
      9 H1          0.0581   -4.6079   -1.0595 H         1 <0>         0.0454
     10 C9          1.3547   -4.7361    0.6220 C.2       1 <0>        -0.2340
     11 C10         1.2576   -5.5569    1.7355 C.2       1 <0>         0.2214
     12 N1          0.0795   -5.9363    2.2338 N.2       1 <0>        -0.6482
     13 C11        -1.0898   -5.5947    1.7538 C.2       1 <0>         0.3231
     14 C12        -1.2163   -4.7694    0.6362 C.2       1 <0>        -0.3927
     15 C13        -2.4444   -4.4223    0.1518 C.2       1 <0>         0.4748
     16 O1         -3.5607   -4.8763    0.7567 O.3       1 <0>        -0.6564
     17 O2         -2.5413   -3.6254   -0.9316 O.3       1 <0>        -0.3259
     18 C14        -3.8578   -3.3026   -1.3839 C.3       1 <0>         0.0985
     19 C15        -3.7682   -2.4103   -2.5950 C.2       1 <0>        -0.1409
     20 C16        -4.5250   -2.6442   -3.6384 C.2       1 <0>        -0.1900
     21 C17        -2.3351   -6.1068    2.4306 C.3       1 <0>        -0.0862
     22 S1          2.7350   -6.1165    2.5156 S.3       1 <0>        -0.0440
     23 C18         2.1441   -7.1372    3.8938 C.3       1 <0>        -0.1336
     24 C19         3.3238   -7.6855    4.6546 C.2       1 <0>         0.5334
     25 O3          4.4520   -7.4144    4.3019 O.2       1 <0>        -0.5277
     26 N2          3.1250   -8.4772    5.7271 N.am      1 <0>        -0.8529
     27 C20         2.6274   -4.3390    0.0994 C.1       1 <0>         0.2918
     28 N3          3.6370   -4.0240   -0.3152 N.1       1 <0>        -0.4845
     29 H2          1.0042    1.8801    0.0026 H         1 <0>         0.0614
     30 H3         -0.5455    1.8639   -0.8728 H         1 <0>         0.0587
     31 H4         -0.5286    1.8543    0.9071 H         1 <0>         0.0591
     32 H5         -0.0064   -0.1436   -2.1312 H         1 <0>         0.1092
     33 H6          0.0266   -2.6057   -2.1448 H         1 <0>         0.1122
     34 H7          0.0491   -2.6289    2.1200 H         1 <0>         0.1129
     35 H8          0.0245   -0.1667    2.1335 H         1 <0>         0.1100
     36 H9         -4.3868   -4.2189   -1.6460 H         1 <0>         0.0629
     37 H10        -4.3979   -2.7855   -0.5908 H         1 <0>         0.0674
     38 H11        -3.0800   -1.5780   -2.6027 H         1 <0>         0.1157
     39 H12        -5.2132   -3.4765   -3.6306 H         1 <0>         0.0965
     40 H13        -4.4608   -2.0047   -4.5063 H         1 <0>         0.1011
     41 H14        -2.0566   -6.7303    3.2802 H         1 <0>         0.0431
     42 H15        -2.9322   -5.2640    2.7786 H         1 <0>         0.0812
     43 H16        -2.9171   -6.6965    1.7224 H         1 <0>         0.0810
     44 H17         1.5328   -6.5290    4.5604 H         1 <0>         0.1193
     45 H18         1.5472   -7.9622    3.5051 H         1 <0>         0.1196
     46 H19         2.2226   -8.6941    6.0093 H         1 <0>         0.4033
     47 H20         3.8843   -8.8302    6.2168 H         1 <0>         0.4022
@<TRIPOS>BOND
     1    1    2 1
     2    1   29 1
     3    1   30 1
     4    1   31 1
     5    2    7 ar
     6    2    3 ar
     7    3    4 ar
     8    3   32 1
     9    4    5 ar
    10    4   33 1
    11    5    6 ar
    12    5    8 1
    13    6    7 ar
    14    6   34 1
    15    7   35 1
    16    8    9 1
    17    8   14 1
    18    8   10 1
    19   10   11 2
    20   10   27 1
    21   11   12 1
    22   11   22 1
    23   12   13 2
    24   13   14 1
    25   13   21 1
    26   14   15 2
    27   15   16 1
    28   15   17 1
    29   17   18 1
    30   18   19 1
    31   18   36 1
    32   18   37 1
    33   19   20 2
    34   19   38 1
    35   20   39 1
    36   20   40 1
    37   21   41 1
    38   21   42 1
    39   21   43 1
    40   22   23 1
    41   23   24 1
    42   23   44 1
    43   23   45 1
    44   24   25 2
    45   24   26 am
    46   26   46 1
    47   26   47 1
    48   27   28 3
@<TRIPOS>MOLECULE
ZINC07738103
   38    39     0     0     0
SMALL
USER_CHARGES
2-(2-chloro-5-methyl-phenoxy)-N-(3-sulfamoylphenyl)-acetamide
@<TRIPOS>ATOM
      1 C1         -8.2754   -3.0588   -0.5379 C.3       1 <0>        -0.1194
      2 C2         -6.8777   -3.6222   -0.5309 C.ar      1 <0>        -0.0400
      3 C3         -6.6827   -4.9872   -0.6348 C.ar      1 <0>        -0.1435
      4 C4         -5.4019   -5.5075   -0.6287 C.ar      1 <0>        -0.0665
      5 C5         -4.3125   -4.6635   -0.5182 C.ar      1 <0>        -0.0713
      6 C6         -4.5061   -3.2929   -0.4138 C.ar      1 <0>         0.1397
      7 C7         -5.7928   -2.7747   -0.4149 C.ar      1 <0>        -0.2021
      8 O1         -3.4370   -2.4606   -0.3050 O.3       1 <0>        -0.2777
      9 C8         -3.7115   -1.0620   -0.2014 C.3       1 <0>         0.0419
     10 C9         -2.4147   -0.3025   -0.0899 C.2       1 <0>         0.5164
     11 O2         -1.3593   -0.9000   -0.0983 O.2       1 <0>        -0.4861
     12 N1         -2.4278    1.0408    0.0192 N.am      1 <0>        -0.6712
     13 C10        -1.2246    1.7551    0.0116 C.ar      1 <0>         0.1283
     14 C11        -0.1517    1.3031   -0.7458 C.ar      1 <0>        -0.0620
     15 C12         1.0325    2.0133   -0.7557 C.ar      1 <0>        -0.1168
     16 C13         1.1524    3.1711   -0.0086 C.ar      1 <0>        -0.0332
     17 C14         0.0879    3.6211    0.7501 C.ar      1 <0>        -0.6576
     18 C15        -1.0994    2.9152    0.7643 C.ar      1 <0>        -0.0429
     19 S1          0.2456    5.0969    1.6997 S.o2      1 <0>         2.7038
     20 O3         -0.7084    5.0086    2.7491 O.2       1 <0>        -0.9612
     21 O4          1.6337    5.2755    1.9451 O.2       1 <0>        -0.9563
     22 N2         -0.2297    6.3544    0.7327 N.pl3     1 <0>        -1.2475
     23 Cl1        -2.7042   -5.3170   -0.5106 Cl        1 <0>        -0.0499
     24 H1         -8.6511   -3.0064    0.4839 H         1 <0>         0.0776
     25 H2         -8.2620   -2.0590   -0.9718 H         1 <0>         0.0696
     26 H3         -8.9240   -3.7036   -1.1310 H         1 <0>         0.0733
     27 H4         -7.5326   -5.6481   -0.7205 H         1 <0>         0.1356
     28 H5         -5.2523   -6.5740   -0.7100 H         1 <0>         0.1427
     29 H6         -5.9462   -1.7091   -0.3294 H         1 <0>         0.1363
     30 H7         -4.3191   -0.8756    0.6841 H         1 <0>         0.1011
     31 H8         -4.2513   -0.7310   -1.0886 H         1 <0>         0.1018
     32 H9         -3.2713    1.5124    0.1029 H         1 <0>         0.4163
     33 H10        -0.2450    0.3995   -1.3300 H         1 <0>         0.1449
     34 H11         1.8658    1.6646   -1.3476 H         1 <0>         0.1413
     35 H12         2.0795    3.7250   -0.0183 H         1 <0>         0.1468
     36 H13        -1.9306    3.2672    1.3572 H         1 <0>         0.1472
     37 H14        -0.6311    7.1446    1.1269 H         1 <0>         0.4226
     38 H15        -0.1067    6.3009   -0.2280 H         1 <0>         0.4177
@<TRIPOS>BOND
     1    1    2 1
     2    1   24 1
     3    1   25 1
     4    1   26 1
     5    2    7 ar
     6    2    3 ar
     7    3    4 ar
     8    3   27 1
     9    4    5 ar
    10    4   28 1
    11    5    6 ar
    12    5   23 1
    13    6    7 ar
    14    6    8 1
    15    7   29 1
    16    8    9 1
    17    9   10 1
    18    9   30 1
    19    9   31 1
    20   10   11 2
    21   10   12 am
    22   12   13 1
    23   12   32 1
    24   13   18 ar
    25   13   14 ar
    26   14   15 ar
    27   14   33 1
    28   15   16 ar
    29   15   34 1
    30   16   17 ar
    31   16   35 1
    32   17   18 ar
    33   17   19 1
    34   18   36 1
    35   19   20 2
    36   19   21 2
    37   19   22 1
    38   22   37 1
    39   22   38 1
@<TRIPOS>MOLECULE
ZINC26218198
   36    37     0     0     0
SMALL
USER_CHARGES
4-bromo-N'-[(E)-2-cyano-3-(p-tolyl)prop-2-enoyl]-1H-pyrrole-2-carbohydrazide
@<TRIPOS>ATOM
      1 C1        -11.7877   -4.4671   -0.3375 C.3       1 <0>        -0.1260
      2 C2        -10.5848   -3.5656   -0.2302 C.ar      1 <0>        -0.0533
      3 C3        -10.7032   -2.3302    0.3833 C.ar      1 <0>        -0.1272
      4 C4         -9.6084   -1.4992    0.4853 C.ar      1 <0>        -0.0703
      5 C5         -8.3733   -1.9079   -0.0338 C.ar      1 <0>        -0.1199
      6 C6         -8.2639   -3.1573   -0.6575 C.ar      1 <0>        -0.0838
      7 C7         -9.3679   -3.9777   -0.7461 C.ar      1 <0>        -0.1238
      8 C8         -7.2024   -1.0298    0.0698 C.2       1 <0>         0.0859
      9 C9         -5.9496   -1.5685    0.1480 C.2       1 <0>        -0.1284
     10 C10        -5.7861   -2.9853    0.2759 C.1       1 <0>         0.2377
     11 N1         -5.6564   -4.1093    0.3775 N.1       1 <0>        -0.3929
     12 C11        -4.7671   -0.6922    0.1007 C.2       1 <0>         0.5814
     13 O1         -4.9060    0.5113   -0.0080 O.2       1 <0>        -0.5375
     14 N2         -3.5310   -1.2237    0.1779 N.am      1 <0>        -0.5239
     15 N3         -2.4060   -0.3900    0.1329 N.am      1 <0>        -0.5317
     16 C12        -1.1698   -0.9214    0.2101 C.2       1 <0>         0.5971
     17 O2         -1.0309   -2.1255    0.3188 O.2       1 <0>        -0.5247
     18 C13         0.0080   -0.0486    0.1630 C.2       1 <0>        -0.0520
     19 C14         1.3246   -0.4523    0.2318 C.2       1 <0>        -0.0677
     20 C15         2.1128    0.7005    0.1510 C.2       1 <0>        -0.1874
     21 C16         1.2819    1.7647    0.0368 C.2       1 <0>         0.0874
     22 N4          0.0000    1.3225    0.0429 N.pl3     1 <0>        -0.5423
     23 H1         -0.9555    1.8628   -0.0286 H         1 <0>         0.4498
     24 Br1         4.0023    0.7626    0.1937 Br        1 <0>        -0.0188
     25 H2        -12.6567   -3.9754    0.1240 H         1 <0>         0.0706
     26 H3        -11.5834   -5.4146    0.1827 H         1 <0>         0.0760
     27 H4        -12.0009   -4.6693   -1.3975 H         1 <0>         0.0764
     28 H5        -11.6563   -2.0165    0.7827 H         1 <0>         0.1320
     29 H6         -9.7026   -0.5356    0.9639 H         1 <0>         0.1360
     30 H7         -7.3164   -3.4783   -1.0645 H         1 <0>         0.1273
     31 H8         -9.2844   -4.9431   -1.2230 H         1 <0>         0.1292
     32 H9         -7.3334    0.0623    0.0845 H         1 <0>         0.1723
     33 H10        -3.4054   -2.3121    0.2762 H         1 <0>         0.4612
     34 H11        -2.5316    0.6984    0.0346 H         1 <0>         0.4494
     35 H12         1.6803   -1.4673    0.3299 H         1 <0>         0.1578
     36 H13         1.5902    2.7965   -0.0456 H         1 <0>         0.1840
@<TRIPOS>BOND
     1    1    2 1
     2    1   25 1
     3    1   26 1
     4    1   27 1
     5    2    7 ar
     6    2    3 ar
     7    3    4 ar
     8    3   28 1
     9    4    5 ar
    10    4   29 1
    11    5    6 ar
    12    5    8 1
    13    6    7 ar
    14    6   30 1
    15    7   31 1
    16    8    9 2
    17    8   32 1
    18    9   10 1
    19    9   12 1
    20   10   11 3
    21   12   13 2
    22   12   14 am
    23   14   15 1
    24   14   33 1
    25   15   16 am
    26   15   34 1
    27   16   17 2
    28   16   18 1
    29   18   22 1
    30   18   19 2
    31   19   20 1
    32   19   35 1
    33   20   21 2
    34   20   24 1
    35   21   22 1
    36   21   36 1
    37   22   23 1
@<TRIPOS>MOLECULE
ZINC45946882
   48    50     0     0     0
SMALL
USER_CHARGES

@<TRIPOS>ATOM
      1 C1         -3.8591    2.0360   -1.7715 C.3       1 <0>        -0.1453
      2 C2         -2.6879    1.7852   -0.8195 C.3       1 <0>        -0.0836
      3 C3         -2.6964    0.3432   -0.3817 C.ar      1 <0>        -0.0697
      4 C4         -3.3126   -0.0166    0.8010 C.ar      1 <0>        -0.1174
      5 C5         -3.3212   -1.3394    1.2032 C.ar      1 <0>        -0.1050
      6 C6         -2.7134   -2.3066    0.4233 C.ar      1 <0>        -0.1187
      7 C7         -2.0958   -1.9536   -0.7601 C.ar      1 <0>        -0.0672
      8 C8         -2.0898   -0.6262   -1.1698 C.ar      1 <0>         0.1294
      9 N1         -1.4699   -0.2661   -2.3702 N.am      1 <0>        -0.6628
     10 C9         -2.0620   -0.5521   -3.5466 C.2       1 <0>         0.6054
     11 O1         -3.1741   -1.0467   -3.5640 O.2       1 <0>        -0.5048
     12 C10        -1.3683   -0.2682   -4.8024 C.2       1 <0>         0.0164
     13 N2         -0.1860    0.2491   -4.9032 N.2       1 <0>        -0.1617
     14 N3          0.2486    0.4179   -6.2162 N.pl3     1 <0>        -0.4361
     15 C11        -0.8008   -0.0582   -7.1310 C.3       1 <0>         0.0903
     16 H1         -0.4339   -0.8864   -7.7373 H         1 <0>         0.1180
     17 C12        -1.9182   -0.5394   -6.1845 C.3       1 <0>        -0.0945
     18 C13        -1.2871    1.0652   -8.0099 C.2       1 <0>         0.5064
     19 O2         -1.0775    2.2171   -7.6934 O.2       1 <0>        -0.5125
     20 N4         -1.9549    0.7899   -9.1477 N.am      1 <0>        -0.8484
     21 C14         1.4795    0.9522   -6.6012 C.ar      1 <0>         0.2225
     22 C15         1.7946    1.0747   -7.9492 C.ar      1 <0>        -0.1627
     23 C16         3.0129    1.6041   -8.3263 C.ar      1 <0>        -0.0797
     24 C17         3.9190    2.0122   -7.3645 C.ar      1 <0>        -0.1532
     25 C18         3.6090    1.8913   -6.0221 C.ar      1 <0>        -0.0825
     26 C19         2.3903    1.3681   -5.6376 C.ar      1 <0>        -0.1519
     27 C20        -1.4333   -3.0080   -1.6090 C.3       1 <0>        -0.1157
     28 H2         -3.8530    3.0790   -2.0882 H         1 <0>         0.0579
     29 H3         -3.7623    1.3906   -2.6446 H         1 <0>         0.0547
     30 H4         -4.7964    1.8171   -1.2600 H         1 <0>         0.0572
     31 H5         -1.7506    2.0041   -1.3310 H         1 <0>         0.0697
     32 H6         -2.7847    2.4306    0.0535 H         1 <0>         0.0750
     33 H7         -3.7877    0.7362    1.4125 H         1 <0>         0.1268
     34 H8         -3.8033   -1.6181    2.1286 H         1 <0>         0.1264
     35 H9         -2.7217   -3.3389    0.7405 H         1 <0>         0.1269
     36 H10        -0.6136    0.1895   -2.3562 H         1 <0>         0.4144
     37 H11        -2.1037   -1.6049   -6.3197 H         1 <0>         0.1205
     38 H12        -2.8308    0.0327   -6.3518 H         1 <0>         0.1094
     39 H13        -2.1226   -0.1314   -9.4009 H         1 <0>         0.4044
     40 H14        -2.2680    1.5130   -9.7135 H         1 <0>         0.4086
     41 H15         1.0876    0.7559   -8.7008 H         1 <0>         0.1145
     42 H16         3.2586    1.6993   -9.3737 H         1 <0>         0.1271
     43 H17         4.8711    2.4259   -7.6624 H         1 <0>         0.1247
     44 H18         4.3192    2.2107   -5.2737 H         1 <0>         0.1281
     45 H19         2.1470    1.2785   -4.5892 H         1 <0>         0.1312
     46 H20        -2.1782   -3.4789   -2.2504 H         1 <0>         0.0745
     47 H21        -0.6624   -2.5462   -2.2259 H         1 <0>         0.0627
     48 H22        -0.9802   -3.7614   -0.9646 H         1 <0>         0.0704
@<TRIPOS>BOND
     1    1    2 1
     2    1   28 1
     3    1   29 1
     4    1   30 1
     5    2    3 1
     6    2   31 1
     7    2   32 1
     8    3    8 ar
     9    3    4 ar
    10    4    5 ar
    11    4   33 1
    12    5    6 ar
    13    5   34 1
    14    6    7 ar
    15    6   35 1
    16    7    8 ar
    17    7   27 1
    18    8    9 1
    19    9   10 am
    20    9   36 1
    21   10   11 2
    22   10   12 1
    23   12   17 1
    24   12   13 2
    25   13   14 1
    26   14   15 1
    27   14   21 1
    28   15   16 1
    29   15   17 1
    30   15   18 1
    31   17   37 1
    32   17   38 1
    33   18   19 2
    34   18   20 am
    35   20   39 1
    36   20   40 1
    37   21   26 ar
    38   21   22 ar
    39   22   23 ar
    40   22   41 1
    41   23   24 ar
    42   23   42 1
    43   24   25 ar
    44   24   43 1
    45   25   26 ar
    46   25   44 1
    47   26   45 1
    48   27   46 1
    49   27   47 1
    50   27   48 1
@<TRIPOS>MOLECULE
ZINC57390305
   35    36     0     0     0
SMALL
USER_CHARGES

@<TRIPOS>ATOM
      1 C1         -0.0184    1.5028    0.0103 C.3       1 <0>        -0.1084
      2 C2          0.0021   -0.0041    0.0020 C.ar      1 <0>        -0.1421
      3 C3          0.0057   -0.6873   -1.2002 C.ar      1 <0>        -0.0714
      4 C4          0.0244   -2.0682   -1.2115 C.ar      1 <0>        -0.1852
      5 C5          0.0396   -2.7708   -0.0132 C.ar      1 <0>         0.2100
      6 C6          0.0359   -2.0813    1.1927 C.ar      1 <0>        -0.1956
      7 C7          0.0229   -0.7003    1.1966 C.ar      1 <0>        -0.0722
      8 N1          0.0581   -4.1674   -0.0209 N.pl3     1 <0>        -0.7392
      9 C8          0.0741   -4.9067    1.2438 C.3       1 <0>         0.1207
     10 C9          0.0923   -6.3867    0.9602 C.2       1 <0>         0.5132
     11 O1          0.0920   -6.7847   -0.1854 O.2       1 <0>        -0.5267
     12 N2          0.1090   -7.2680    1.9798 N.am      1 <0>        -0.5158
     13 N3          0.1260   -8.6439    1.7162 N.am      1 <0>        -0.5107
     14 C10         0.1426   -9.5252    2.7358 C.2       1 <0>         0.6105
     15 O2          0.1430   -9.1257    3.8855 O.2       1 <0>        -0.5088
     16 C11         0.1604  -10.9644    2.4601 C.2       1 <0>        -0.0582
     17 C12         0.1727  -11.9605    3.3947 C.2       1 <0>        -0.0984
     18 C13         0.1871  -13.1741    2.6914 C.2       1 <0>        -0.1643
     19 C14         0.1830  -12.8703    1.3728 C.2       1 <0>         0.0060
     20 O3          0.1615  -11.5378    1.2382 O.3       1 <0>        -0.1485
     21 Br1         0.1986  -14.1207   -0.0457 Br        1 <0>         0.0727
     22 H1          1.0042    1.8801    0.0026 H         1 <0>         0.0647
     23 H2         -0.5455    1.8639   -0.8728 H         1 <0>         0.0624
     24 H3         -0.5286    1.8543    0.9071 H         1 <0>         0.0623
     25 H4         -0.0065   -0.1405   -2.1315 H         1 <0>         0.1220
     26 H5          0.0269   -2.6012   -2.1507 H         1 <0>         0.1213
     27 H6          0.0473   -2.6245    2.1261 H         1 <0>         0.1204
     28 H7          0.0244   -0.1635    2.1338 H         1 <0>         0.1213
     29 H8          0.0603   -4.6478   -0.8636 H         1 <0>         0.4119
     30 H9          0.9633   -4.6347    1.8124 H         1 <0>         0.0998
     31 H10        -0.8164   -4.6583    1.8211 H         1 <0>         0.0997
     32 H11         0.1093   -6.9496    2.8961 H         1 <0>         0.4377
     33 H12         0.1257   -8.9622    0.8000 H         1 <0>         0.4393
     34 H13         0.1720  -11.8375    4.4677 H         1 <0>         0.1757
     35 H14         0.1992  -14.1647    3.1215 H         1 <0>         0.1741
@<TRIPOS>BOND
     1    1    2 1
     2    1   22 1
     3    1   23 1
     4    1   24 1
     5    2    7 ar
     6    2    3 ar
     7    3    4 ar
     8    3   25 1
     9    4    5 ar
    10    4   26 1
    11    5    6 ar
    12    5    8 1
    13    6    7 ar
    14    6   27 1
    15    7   28 1
    16    8    9 1
    17    8   29 1
    18    9   10 1
    19    9   30 1
    20    9   31 1
    21   10   11 2
    22   10   12 am
    23   12   13 1
    24   12   32 1
    25   13   14 am
    26   13   33 1
    27   14   15 2
    28   14   16 1
    29   16   20 1
    30   16   17 2
    31   17   18 1
    32   17   34 1
    33   18   19 2
    34   18   35 1
    35   19   20 1
    36   19   21 1
@<TRIPOS>MOLECULE
ZINC66239864
   39    41     0     0     0
SMALL
USER_CHARGES

@<TRIPOS>ATOM
      1 C1         -0.0165    1.3931    0.0055 C.ar      1 <0>        -0.0269
      2 C2          1.1675    2.0960   -0.0097 C.ar      1 <0>        -0.1124
      3 C3          2.3810    1.4169   -0.0345 C.ar      1 <0>         0.1904
      4 C4          2.4035    0.0263   -0.0442 C.ar      1 <0>        -0.1554
      5 C5          1.2234   -0.6831   -0.0297 C.ar      1 <0>        -0.0553
      6 C6          0.0022   -0.0042   -0.0042 C.ar      1 <0>        -0.1430
      7 C7         -1.2649   -0.7612    0.0125 C.2       1 <0>         0.5638
      8 O1         -2.3266   -0.1690    0.0346 O.2       1 <0>        -0.5050
      9 N1         -1.2449   -2.1087    0.0031 N.am      1 <0>        -0.6707
     10 C8         -2.4398   -2.8265    0.1167 C.ar      1 <0>         0.1761
     11 C9         -2.4661   -4.0287    0.8118 C.ar      1 <0>        -0.1451
     12 C10        -3.6479   -4.7348    0.9226 C.ar      1 <0>        -0.0495
     13 C11        -4.8040   -4.2462    0.3422 C.ar      1 <0>        -0.1975
     14 C12        -4.7811   -3.0499   -0.3510 C.ar      1 <0>        -0.0492
     15 C13        -3.6039   -2.3359   -0.4605 C.ar      1 <0>        -0.1221
     16 C14        -6.0917   -5.0194    0.4651 C.3       1 <0>         0.5095
     17 F1         -6.7740   -4.6092    1.6154 F         1 <0>        -0.1758
     18 F2         -6.8883   -4.7803   -0.6598 F         1 <0>        -0.1763
     19 F3         -5.8081   -6.3865    0.5536 F         1 <0>        -0.1771
     20 N2          3.5805    2.1335   -0.0503 N.pl3     1 <0>        -0.3502
     21 C15         4.7382    1.7602    0.5551 C.2       1 <0>         0.4328
     22 C16         5.6753    2.7547    0.2889 C.2       1 <0>        -0.2527
     23 C17         5.0278    3.7345   -0.4995 C.2       1 <0>         0.1446
     24 N3          3.7965    3.3551   -0.6973 N.2       1 <0>        -0.2858
     25 C18         7.0375    2.7807    0.7298 C.1       1 <0>         0.2918
     26 N4          8.1181    2.8014    1.0797 N.1       1 <0>        -0.4347
     27 N5          4.9456    0.6126    1.2948 N.pl3     1 <0>        -0.8319
     28 H1         -0.9584    1.9209    0.0293 H         1 <0>         0.1521
     29 H2          1.1537    3.1759   -0.0026 H         1 <0>         0.1497
     30 H3          3.3476   -0.4978   -0.0636 H         1 <0>         0.1393
     31 H4          1.2415   -1.7629   -0.0379 H         1 <0>         0.1390
     32 H5         -0.4019   -2.5808   -0.0824 H         1 <0>         0.4139
     33 H6         -1.5634   -4.4110    1.2650 H         1 <0>         0.1395
     34 H7         -3.6689   -5.6698    1.4627 H         1 <0>         0.1419
     35 H8         -5.6857   -2.6713   -0.8036 H         1 <0>         0.1415
     36 H9         -3.5878   -1.3993   -0.9979 H         1 <0>         0.1522
     37 H10         5.4782    4.6407   -0.8768 H         1 <0>         0.2042
     38 H11         4.2213   -0.0200    1.4219 H         1 <0>         0.4098
     39 H12         5.8155    0.4391    1.6872 H         1 <0>         0.4247
@<TRIPOS>BOND
     1    1    6 ar
     2    1    2 ar
     3    1   28 1
     4    2    3 ar
     5    2   29 1
     6    3    4 ar
     7    3   20 1
     8    4    5 ar
     9    4   30 1
    10    5    6 ar
    11    5   31 1
    12    6    7 1
    13    7    8 2
    14    7    9 am
    15    9   10 1
    16    9   32 1
    17   10   15 ar
    18   10   11 ar
    19   11   12 ar
    20   11   33 1
    21   12   13 ar
    22   12   34 1
    23   13   14 ar
    24   13   16 1
    25   14   15 ar
    26   14   35 1
    27   15   36 1
    28   16   17 1
    29   16   18 1
    30   16   19 1
    31   20   24 1
    32   20   21 1
    33   21   22 2
    34   21   27 1
    35   22   23 1
    36   22   25 1
    37   23   24 2
    38   23   37 1
    39   25   26 3
    40   27   38 1
    41   27   39 1
@<TRIPOS>MOLECULE
ZINC15206708
   35    36     0     0     0
SMALL
USER_CHARGES
[(2S)-2-hydroxy-4-(2-oxochromen-7-yl)oxy-butyl] dihydrogen phosphate
@<TRIPOS>ATOM
      1 C1          1.5462    0.0198    3.6046 C.ar      1 <0>        -0.0090
      2 C2          0.9955    0.3892    2.4115 C.ar      1 <0>        -0.2262
      3 C3         -0.1494    1.1825    2.3782 C.ar      1 <0>         0.2047
      4 C4         -0.7525    1.5982    3.5544 C.ar      1 <0>        -0.1837
      5 C5         -0.2100    1.2270    4.7751 C.ar      1 <0>         0.1879
      6 C6          0.9501    0.4302    4.8022 C.ar      1 <0>        -0.2127
      7 C7          1.5151    0.0437    6.0967 C.2       1 <0>         0.0218
      8 C8          0.8906    0.4740    7.2238 C.2       1 <0>        -0.2719
      9 C9         -0.2687    1.2702    7.1227 C.2       1 <0>         0.5112
     10 O1         -0.8185    1.6496    8.1412 O.2       1 <0>        -0.4738
     11 O2         -0.7815    1.6215    5.9331 O.3       1 <0>        -0.2696
     12 O3         -0.6816    1.5467    1.1837 O.3       1 <0>        -0.3020
     13 C10        -0.0127    1.0858    0.0080 C.3       1 <0>         0.0607
     14 C11        -0.7527    1.5927   -1.2315 C.3       1 <0>        -0.1520
     15 C12        -0.0366    1.0992   -2.4903 C.3       1 <0>         0.1066
     16 H1          0.0568    0.0139   -2.4534 H         1 <0>         0.1031
     17 C13        -0.8440    1.4999   -3.7266 C.3       1 <0>         0.1034
     18 O4         -0.2379    0.9401   -4.8934 O.3       1 <0>        -0.7512
     19 P1         -0.8243    1.1586   -6.3768 P.3       1 <0>         2.1323
     20 O5         -2.2410    0.7321   -6.4150 O.2       1 <0>        -1.1660
     21 O6          1.2641    1.6871   -2.5598 O.3       1 <0>        -0.5551
     22 H2          2.4360   -0.5919    3.6242 H         1 <0>         0.1428
     23 H3          1.4530    0.0685    1.4872 H         1 <0>         0.1472
     24 H4         -1.6421    2.2096    3.5204 H         1 <0>         0.1523
     25 H5          2.4043   -0.5666    6.1539 H         1 <0>         0.1513
     26 H6          1.2809    0.2067    8.1946 H         1 <0>         0.1601
     27 H7          0.0021   -0.0041    0.0020 H         1 <0>         0.0709
     28 H8          1.0099    1.4631    0.0003 H         1 <0>         0.0782
     29 H9         -1.7753    1.2154   -1.2238 H         1 <0>         0.0878
     30 H10        -0.7675    2.6825   -1.2255 H         1 <0>         0.0806
     31 H11        -1.8634    1.1258   -3.6317 H         1 <0>         0.0425
     32 H12        -0.8621    2.5864   -3.8123 H         1 <0>         0.0372
     33 H13         1.2575    2.6534   -2.5955 H         1 <0>         0.3704
     34 O7         -0.7221    2.7165   -6.7701 O.3       1 <0>        -1.2007
     35 O8          0.0282    0.2833   -7.4252 O.3       1 <0>        -1.1791
@<TRIPOS>BOND
     1    1    6 ar
     2    1    2 ar
     3    1   22 1
     4    2    3 ar
     5    2   23 1
     6    3    4 ar
     7    3   12 1
     8    4    5 ar
     9    4   24 1
    10    5   11 1
    11    5    6 ar
    12    6    7 1
    13    7    8 2
    14    7   25 1
    15    8    9 1
    16    8   26 1
    17    9   10 2
    18    9   11 1
    19   12   13 1
    20   13   14 1
    21   13   27 1
    22   13   28 1
    23   14   15 1
    24   14   29 1
    25   14   30 1
    26   15   16 1
    27   15   17 1
    28   15   21 1
    29   17   18 1
    30   17   31 1
    31   17   32 1
    32   18   19 1
    33   19   20 2
    34   19   34 1
    35   19   35 1
    36   21   33 1
@<TRIPOS>MOLECULE
ZINC37584065
   36    37     0     0     0
SMALL
USER_CHARGES

@<TRIPOS>ATOM
      1 C1          4.3942    0.6007   -0.2161 C.3       1 <0>        -0.1144
      2 C2          4.4928   -0.0369    1.1886 C.3       1 <0>        -0.1305
      3 C3          3.2401   -0.9597    1.2915 C.3       1 <0>        -0.0843
      4 H1          3.2881   -1.7460    2.0448 H         1 <0>         0.0977
      5 C4          3.1060   -1.4339   -0.1986 C.3       1 <0>        -0.1217
      6 C5          3.0912    0.0031   -0.8297 C.3       1 <0>        -0.1051
      7 H2          3.0102    0.0514   -1.9156 H         1 <0>         0.0909
      8 C6          1.9375    0.6638   -0.0151 C.3       1 <0>        -0.1045
      9 C7          2.0379    0.0261    1.4109 C.3       1 <0>        -0.1127
     10 H3          1.1234   -0.5171    1.6492 H         1 <0>         0.0833
     11 C8          2.3178    1.0715    2.4597 C.2       1 <0>         0.5240
     12 O1          2.7439    2.1590    2.1332 O.2       1 <0>        -0.5587
     13 N1          2.0946    0.7978    3.7604 N.am      1 <0>        -0.6846
     14 C9          2.3668    1.8141    4.7799 C.3       1 <0>         0.0732
     15 H4          2.1337    2.8011    4.3803 H         1 <0>         0.0741
     16 C10         1.5006    1.5451    6.0121 C.3       1 <0>        -0.0799
     17 C11         0.0254    1.7227    5.6471 C.3       1 <0>        -0.1767
     18 C12        -0.8277    1.4577    6.8608 C.2       1 <0>         0.4904
     19 O2         -0.3043    1.1549    7.9195 O.co2     1 <0>        -0.6972
     20 O3         -2.0413    1.5462    6.7840 O.co2     1 <0>        -0.7210
     21 C13         3.8221    1.7599    5.1673 C.2       1 <0>         0.4953
     22 O4          4.5633    0.9476    4.6406 O.co2     1 <0>        -0.6951
     23 O5          4.2584    2.5283    6.0074 O.co2     1 <0>        -0.7031
     24 H5          4.3142    1.6848   -0.1366 H         1 <0>         0.0679
     25 H6          5.2592    0.3258   -0.8197 H         1 <0>         0.0494
     26 H7          5.4063   -0.6252    1.2757 H         1 <0>         0.0536
     27 H8          4.4613    0.7338    1.9588 H         1 <0>         0.0979
     28 H9          3.9703   -2.0137   -0.5224 H         1 <0>         0.0651
     29 H10         2.1721   -1.9676   -0.3753 H         1 <0>         0.0639
     30 H11         2.0844    1.7421    0.0459 H         1 <0>         0.0838
     31 H12         0.9730    0.4359   -0.4689 H         1 <0>         0.0583
     32 H13         1.7539   -0.0720    4.0214 H         1 <0>         0.3885
     33 H14         1.6689    0.5255    6.3589 H         1 <0>         0.0540
     34 H15         1.7662    2.2465    6.8030 H         1 <0>         0.0766
     35 H16        -0.1428    2.7423    5.3003 H         1 <0>         0.0511
     36 H17        -0.2402    1.0213    4.8562 H         1 <0>         0.0501
@<TRIPOS>BOND
     1    1    6 1
     2    1    2 1
     3    1   24 1
     4    1   25 1
     5    2    3 1
     6    2   26 1
     7    2   27 1
     8    3    4 1
     9    3    9 1
    10    3    5 1
    11    5    6 1
    12    5   28 1
    13    5   29 1
    14    6    7 1
    15    6    8 1
    16    8    9 1
    17    8   30 1
    18    8   31 1
    19    9   10 1
    20    9   11 1
    21   11   12 2
    22   11   13 am
    23   13   14 1
    24   13   32 1
    25   14   15 1
    26   14   16 1
    27   14   21 1
    28   16   17 1
    29   16   33 1
    30   16   34 1
    31   17   18 1
    32   17   35 1
    33   17   36 1
    34   18   19 2
    35   18   20 1
    36   21   22 2
    37   21   23 1
@<TRIPOS>MOLECULE
ZINC40577665
   40    40     0     0     0
SMALL
USER_CHARGES

@<TRIPOS>ATOM
      1 C1         -0.0187    1.5258    0.0104 C.3       1 <0>        -0.1739
      2 C2          0.0021   -0.0041    0.0020 C.3       1 <0>         0.1095
      3 N1          0.6878   -0.4765   -1.2033 N.am      1 <0>        -0.6353
      4 C3          2.1353   -0.7012   -1.1821 C.3       1 <0>         0.1706
      5 C4          2.8179    0.1474   -2.2747 C.3       1 <0>        -0.1368
      6 C5          3.9552   -0.7603   -2.8054 C.3       1 <0>        -0.1151
      7 C6          3.3054   -2.1662   -2.7909 C.3       1 <0>        -0.1142
      8 C7          2.4453   -2.1722   -1.5103 C.3       1 <0>        -0.1266
      9 C8         -0.0130   -0.7045   -2.3317 C.2       1 <0>         0.7056
     10 O1          0.5561   -1.0966   -3.3321 O.2       1 <0>        -0.5890
     11 N2         -1.3447   -0.4978   -2.3513 N.am      1 <0>        -0.7025
     12 C9         -2.1065   -0.7456   -3.5779 C.3       1 <0>         0.0928
     13 H1         -1.6768   -1.5962   -4.1069 H         1 <0>         0.0737
     14 C10        -3.5629   -1.0497   -3.2210 C.3       1 <0>        -0.0819
     15 C11        -3.6319   -2.3578   -2.4305 C.3       1 <0>        -0.1743
     16 C12        -5.0664   -2.6573   -2.0790 C.2       1 <0>         0.4906
     17 O2         -5.9515   -1.8952   -2.4284 O.co2     1 <0>        -0.6978
     18 O3         -5.3418   -3.6618   -1.4453 O.co2     1 <0>        -0.7207
     19 C13        -2.0498    0.4752   -4.4597 C.2       1 <0>         0.4980
     20 O4         -2.1081    0.3550   -5.6716 O.co2     1 <0>        -0.7054
     21 O5         -1.9455    1.5830   -3.9612 O.co2     1 <0>        -0.7007
     22 H2          1.0039    1.9031    0.0027 H         1 <0>         0.0510
     23 H3         -0.5459    1.8868   -0.8726 H         1 <0>         0.0715
     24 H4         -0.5289    1.8773    0.9072 H         1 <0>         0.0584
     25 H5          0.5293   -0.3651    0.8851 H         1 <0>         0.0692
     26 H6         -1.0205   -0.3814    0.0098 H         1 <0>         0.0740
     27 H7          2.5384   -0.4443   -0.2025 H         1 <0>         0.0778
     28 H8          2.1127    0.3812   -3.0722 H         1 <0>         0.0931
     29 H9          3.2281    1.0620   -1.8466 H         1 <0>         0.0530
     30 H10         4.2359   -0.4749   -3.8193 H         1 <0>         0.0605
     31 H11         4.8183   -0.7268   -2.1406 H         1 <0>         0.0543
     32 H12         2.6789   -2.3061   -3.6719 H         1 <0>         0.0800
     33 H13         4.0714   -2.9400   -2.7396 H         1 <0>         0.0494
     34 H14         2.9995   -2.6290   -0.6904 H         1 <0>         0.0532
     35 H15         1.5187   -2.7190   -1.6854 H         1 <0>         0.0719
     36 H16        -1.7987   -0.1850   -1.5532 H         1 <0>         0.3861
     37 H17        -3.9658   -0.2377   -2.6157 H         1 <0>         0.0580
     38 H18        -4.1484   -1.1464   -4.1353 H         1 <0>         0.0707
     39 H19        -3.2289   -3.1698   -3.0358 H         1 <0>         0.0516
     40 H20        -3.0463   -2.2611   -1.5162 H         1 <0>         0.0496
@<TRIPOS>BOND
     1    1    2 1
     2    1   22 1
     3    1   23 1
     4    1   24 1
     5    2    3 1
     6    2   25 1
     7    2   26 1
     8    3    4 1
     9    3    9 am
    10    4    8 1
    11    4    5 1
    12    4   27 1
    13    5    6 1
    14    5   28 1
    15    5   29 1
    16    6    7 1
    17    6   30 1
    18    6   31 1
    19    7    8 1
    20    7   32 1
    21    7   33 1
    22    8   34 1
    23    8   35 1
    24    9   10 2
    25    9   11 am
    26   11   12 1
    27   11   36 1
    28   12   13 1
    29   12   14 1
    30   12   19 1
    31   14   15 1
    32   14   37 1
    33   14   38 1
    34   15   16 1
    35   15   39 1
    36   15   40 1
    37   16   17 2
    38   16   18 1
    39   19   20 2
    40   19   21 1
@<TRIPOS>MOLECULE
ZINC49016309
   43    43     0     0     0
SMALL
USER_CHARGES

@<TRIPOS>ATOM
      1 C1         -0.0187    1.5258    0.0104 C.3       1 <0>        -0.1439
      2 C2          0.0021   -0.0041    0.0020 C.3       1 <0>        -0.0907
      3 H1         -1.0205   -0.3814    0.0098 H         1 <0>         0.0715
      4 C3          0.7182   -0.4975   -1.2568 C.3       1 <0>        -0.1113
      5 C4          0.7390   -2.0273   -1.2652 C.3       1 <0>        -0.1150
      6 C5          1.4790   -2.5342   -0.0257 C.3       1 <0>        -0.1287
      7 C6          0.7628   -2.0407    1.2331 C.3       1 <0>         0.1607
      8 H2         -0.2598   -2.4180    1.2409 H         1 <0>         0.0991
      9 C7          0.7421   -0.5109    1.2415 C.3       1 <0>        -0.1219
     10 N1          1.4714   -2.5260    2.4200 N.am      1 <0>        -0.6364
     11 C8          2.8712   -2.1543    2.6405 C.3       1 <0>         0.0830
     12 C9          0.8354   -3.3145    3.3091 C.2       1 <0>         0.7049
     13 O1         -0.3263   -3.6230    3.1261 O.2       1 <0>        -0.6001
     14 N2          1.4873   -3.7610    4.4009 N.am      1 <0>        -0.7000
     15 C10         0.7961   -4.6180    5.3673 C.3       1 <0>         0.0914
     16 H3          0.0990   -5.2702    4.8411 H         1 <0>         0.0744
     17 C11         1.8215   -5.4685    6.1196 C.3       1 <0>        -0.0819
     18 C12         2.5032   -6.4284    5.1425 C.3       1 <0>        -0.1749
     19 C13         3.5132   -7.2661    5.8835 C.2       1 <0>         0.4907
     20 O2          3.6730   -7.1100    7.0821 O.co2     1 <0>        -0.6977
     21 O3          4.1706   -8.1000    5.2844 O.co2     1 <0>        -0.7206
     22 C14         0.0387   -3.7601    6.3479 C.2       1 <0>         0.4975
     23 O4         -0.9862   -4.1782    6.8590 O.co2     1 <0>        -0.7044
     24 O5          0.4509   -2.6480    6.6302 O.co2     1 <0>        -0.7008
     25 H4          1.0039    1.9031    0.0027 H         1 <0>         0.0518
     26 H5         -0.5459    1.8868   -0.8726 H         1 <0>         0.0500
     27 H6         -0.5289    1.8773    0.9072 H         1 <0>         0.0547
     28 H7          0.1910   -0.1364   -2.1398 H         1 <0>         0.0572
     29 H8          1.7408   -0.1202   -1.2645 H         1 <0>         0.0596
     30 H9         -0.2836   -2.4046   -1.2575 H         1 <0>         0.0634
     31 H10         1.2492   -2.3788   -2.1620 H         1 <0>         0.0600
     32 H11         1.4937   -3.6240   -0.0317 H         1 <0>         0.0660
     33 H12         2.5015   -2.1569   -0.0334 H         1 <0>         0.0619
     34 H13         1.7647   -0.1336    1.2338 H         1 <0>         0.0613
     35 H14         0.2319   -0.1594    2.1383 H         1 <0>         0.0674
     36 H15         2.9152   -1.2299    3.2164 H         1 <0>         0.0495
     37 H16         3.3760   -2.9490    3.1898 H         1 <0>         0.0674
     38 H17         3.3638   -2.0074    1.6793 H         1 <0>         0.0644
     39 H18         2.4141   -3.5148    4.5469 H         1 <0>         0.3878
     40 H19         2.5702   -4.8187    6.5726 H         1 <0>         0.0588
     41 H20         1.3176   -6.0405    6.8988 H         1 <0>         0.0718
     42 H21         1.7545   -7.0782    4.6895 H         1 <0>         0.0520
     43 H22         3.0071   -5.8564    4.3633 H         1 <0>         0.0499
@<TRIPOS>BOND
     1    1    2 1
     2    1   25 1
     3    1   26 1
     4    1   27 1
     5    2    3 1
     6    2    9 1
     7    2    4 1
     8    4    5 1
     9    4   28 1
    10    4   29 1
    11    5    6 1
    12    5   30 1
    13    5   31 1
    14    6    7 1
    15    6   32 1
    16    6   33 1
    17    7    8 1
    18    7    9 1
    19    7   10 1
    20    9   34 1
    21    9   35 1
    22   10   11 1
    23   10   12 am
    24   11   36 1
    25   11   37 1
    26   11   38 1
    27   12   13 2
    28   12   14 am
    29   14   15 1
    30   14   39 1
    31   15   16 1
    32   15   17 1
    33   15   22 1
    34   17   18 1
    35   17   40 1
    36   17   41 1
    37   18   19 1
    38   18   42 1
    39   18   43 1
    40   19   20 2
    41   19   21 1
    42   22   23 2
    43   22   24 1
@<TRIPOS>MOLECULE
ZINC61214561
   35    35     0     0     0
SMALL
USER_CHARGES

@<TRIPOS>ATOM
      1 C1         -0.0187    1.5258    0.0104 C.3       1 <0>        -0.1773
      2 C2          0.0021   -0.0041    0.0020 C.3       1 <0>         0.1137
      3 N1         -1.3723   -0.5112    0.0124 N.am      1 <0>        -0.6074
      4 C3         -2.0716   -0.7579   -1.2510 C.3       1 <0>         0.1749
      5 H1         -3.0751   -1.1299   -1.0443 H         1 <0>         0.0988
      6 C4         -1.3002   -1.7976   -2.0663 C.3       1 <0>        -0.1578
      7 C5         -2.1649    0.5464   -2.0455 C.3       1 <0>        -0.2003
      8 C6         -3.0279    1.5296   -1.2975 C.2       1 <0>         0.4875
      9 O1         -3.5226    1.2162   -0.2281 O.co2     1 <0>        -0.6613
     10 O2         -3.2315    2.6384   -1.7617 O.co2     1 <0>        -0.7255
     11 C7         -1.9934   -0.7507    1.1843 C.2       1 <0>         0.7250
     12 O3         -3.1341   -1.1715    1.1930 O.2       1 <0>        -0.5824
     13 N2         -1.3500   -0.5237    2.3467 N.am      1 <0>        -0.7357
     14 C8         -2.0251   -0.7840    3.6205 C.3       1 <0>         0.2753
     15 H2         -3.0845   -0.5457    3.5257 H         1 <0>         0.0906
     16 C9         -1.8656   -2.2602    3.9899 C.3       1 <0>        -0.1433
     17 C10        -1.4121    0.0726    4.6982 C.2       1 <0>         0.0578
     18 N3         -2.0622    0.7738    5.6155 N.2       1 <0>        -0.3787
     19 N4         -1.1827    1.3668    6.3485 N.2       1 <0>        -0.2034
     20 N5         -0.0067    1.0614    5.9223 N.2       1 <0>        -0.2044
     21 N6         -0.1190    0.2649    4.9146 N.2       1 <0>        -0.3841
     22 H3          1.0039    1.9031    0.0027 H         1 <0>         0.0491
     23 H4         -0.5459    1.8868   -0.8726 H         1 <0>         0.0717
     24 H5         -0.5289    1.8773    0.9072 H         1 <0>         0.0591
     25 H6          0.5123   -0.3556   -0.8948 H         1 <0>         0.0678
     26 H7          0.5293   -0.3651    0.8851 H         1 <0>         0.0654
     27 H8         -1.2338   -2.7268   -1.5003 H         1 <0>         0.0498
     28 H9         -1.8205   -1.9812   -3.0064 H         1 <0>         0.0563
     29 H10        -0.2967   -1.4256   -2.2731 H         1 <0>         0.0485
     30 H11        -1.1668    0.9646   -2.1757 H         1 <0>         0.0587
     31 H12        -2.6051    0.3461   -3.0223 H         1 <0>         0.0557
     32 H13        -0.4400   -0.1879    2.3398 H         1 <0>         0.3939
     33 H14        -2.3679   -2.4539    4.9377 H         1 <0>         0.0544
     34 H15        -2.3090   -2.8798    3.2104 H         1 <0>         0.0564
     35 H16        -0.8062   -2.4985    4.0848 H         1 <0>         0.0515
@<TRIPOS>BOND
     1    1    2 1
     2    1   22 1
     3    1   23 1
     4    1   24 1
     5    2    3 1
     6    2   25 1
     7    2   26 1
     8    3    4 1
     9    3   11 am
    10    4    5 1
    11    4    6 1
    12    4    7 1
    13    6   27 1
    14    6   28 1
    15    6   29 1
    16    7    8 1
    17    7   30 1
    18    7   31 1
    19    8    9 2
    20    8   10 1
    21   11   12 2
    22   11   13 am
    23   13   14 1
    24   13   32 1
    25   14   15 1
    26   14   16 1
    27   14   17 1
    28   16   33 1
    29   16   34 1
    30   16   35 1
    31   17   18 2
    32   17   21 1
    33   18   19 1
    34   19   20 2
    35   20   21 1
@<TRIPOS>MOLECULE
ZINC19915313
   32    34     0     0     0
SMALL
USER_CHARGES
5-[(3-bromophenyl)methylamino]-2,3-dihydrophthalazine-1,4-dione
@<TRIPOS>ATOM
      1 C1          3.2771   -4.2710   -1.2938 C.ar      1 <0>        -0.1156
      2 C2          3.4571   -2.9002   -1.3102 C.ar      1 <0>        -0.0830
      3 C3          3.6621   -2.2155   -0.1272 C.ar      1 <0>        -0.0871
      4 C4          3.6921   -2.9015    1.0725 C.ar      1 <0>        -0.0716
      5 C5          3.5068   -4.2720    1.0900 C.ar      1 <0>        -0.0921
      6 C6          3.3020   -4.9570   -0.0944 C.ar      1 <0>        -0.0891
      7 Br1         3.5411   -5.2102    2.7314 Br        1 <0>        -0.0545
      8 C7          3.8593   -0.7215   -0.1459 C.3       1 <0>         0.1627
      9 N1          2.5602   -0.0559   -0.0208 N.pl3     1 <0>        -0.7428
     10 C8          2.4885    1.3306   -0.0136 C.ar      1 <0>         0.2677
     11 C9          3.6543    2.0953    0.0006 C.ar      1 <0>        -0.2281
     12 C10         3.5866    3.4730    0.0082 C.ar      1 <0>        -0.0621
     13 C11         2.3609    4.1214    0.0019 C.ar      1 <0>        -0.1584
     14 C12         1.1896    3.3812   -0.0123 C.ar      1 <0>        -0.0565
     15 C13         1.2489    1.9715   -0.0201 C.ar      1 <0>        -0.1971
     16 C14        -0.0144    1.2119   -0.0347 C.2       1 <0>         0.5111
     17 O1          0.0021   -0.0038   -0.0422 O.2       1 <0>        -0.6141
     18 N2         -1.1874    1.8746   -0.0452 N.am      1 <0>        -0.5086
     19 H1         -2.1347    1.3158   -0.0645 H         1 <0>         0.4300
     20 N3         -1.2492    3.2688   -0.0323 N.2       1 <0>        -0.4965
     21 C15        -0.1387    4.0317   -0.0190 C.2       1 <0>         0.4542
     22 O2         -0.2277    5.2438   -0.0121 O.3       1 <0>        -0.6207
     23 H2          3.1173   -4.8057   -2.2185 H         1 <0>         0.1326
     24 H3          3.4379   -2.3644   -2.2478 H         1 <0>         0.1309
     25 H4          3.8564   -2.3669    1.9964 H         1 <0>         0.1335
     26 H5          3.1621   -6.0279   -0.0818 H         1 <0>         0.1315
     27 H6          4.5050   -0.4264    0.6943 H         1 <0>         0.0628
     28 H7          4.3330   -0.4260   -1.0937 H         1 <0>         0.0644
     29 H8          1.6417   -0.6547    0.0674 H         1 <0>         0.4414
     30 H9          4.6169    1.6056    0.0057 H         1 <0>         0.1153
     31 H10         4.4978    4.0527    0.0189 H         1 <0>         0.1152
     32 H11         2.3193    5.2006    0.0076 H         1 <0>         0.1243
@<TRIPOS>BOND
     1    1    6 ar
     2    1    2 ar
     3    1   23 1
     4    2    3 ar
     5    2   24 1
     6    3    4 ar
     7    3    8 1
     8    4    5 ar
     9    4   25 1
    10    5    6 ar
    11    5    7 1
    12    6   26 1
    13    8    9 1
    14    8   27 1
    15    8   28 1
    16    9   10 1
    17    9   29 1
    18   10   15 ar
    19   10   11 ar
    20   11   12 ar
    21   11   30 1
    22   12   13 ar
    23   12   31 1
    24   13   14 ar
    25   13   32 1
    26   14   21 1
    27   14   15 ar
    28   15   16 1
    29   16   17 2
    30   16   18 am
    31   18   19 1
    32   18   20 1
    33   20   21 2
    34   21   22 1
@<TRIPOS>MOLECULE
ZINC37053869
   33    35     0     0     0
SMALL
USER_CHARGES

@<TRIPOS>ATOM
      1 C1         -0.0184    1.5028    0.0103 C.3       1 <0>        -0.1121
      2 C2          0.0021   -0.0041    0.0020 C.ar      1 <0>        -0.0668
      3 C3          0.0058   -0.6873   -1.1984 C.ar      1 <0>        -0.1577
      4 C4          0.0251   -2.0761   -1.2051 C.ar      1 <0>         0.1926
      5 C5          0.0406   -2.7733   -0.0035 C.ar      1 <0>        -0.1012
      6 C6          0.0368   -2.0840    1.1929 C.ar      1 <0>        -0.5747
      7 C7          0.0229   -0.7010    1.1960 C.ar      1 <0>        -0.0783
      8 S1          0.0559   -2.9672    2.7175 S.o2      1 <0>         2.6428
      9 O1         -0.5022   -2.1008    3.6958 O.2       1 <0>        -1.0019
     10 O2         -0.4787   -4.2557    2.4471 O.2       1 <0>        -1.0037
     11 N1          1.6430   -3.1912    3.1337 N.2       1 <0>        -1.0234
     12 C8          1.9633   -3.8615    4.2966 C.2       1 <0>         0.5034
     13 N2          1.1595   -4.3940    5.1888 N.2       1 <0>        -0.6628
     14 C9          1.6172   -5.0274    6.2912 C.ar      1 <0>         0.1712
     15 C10         0.8662   -5.6387    7.3214 C.ar      1 <0>        -0.1221
     16 C11         1.4923   -6.2434    8.3802 C.ar      1 <0>        -0.0978
     17 C12         2.8755   -6.2782    8.4805 C.ar      1 <0>        -0.1661
     18 C13         3.6413   -5.6899    7.4904 C.ar      1 <0>        -0.0439
     19 C14         3.0228   -5.0823    6.4267 C.ar      1 <0>        -0.1935
     20 S2          3.5775   -4.2330    4.9681 S.3       1 <0>        -0.0846
     21 N3          0.0284   -2.7702   -2.4172 N.pl3     1 <0>        -0.8811
     22 H1          1.0042    1.8801    0.0026 H         1 <0>         0.0714
     23 H2         -0.5455    1.8639   -0.8728 H         1 <0>         0.0637
     24 H3         -0.5286    1.8543    0.9071 H         1 <0>         0.0694
     25 H4         -0.0067   -0.1423   -2.1307 H         1 <0>         0.1214
     26 H5          0.0553   -3.8532   -0.0052 H         1 <0>         0.1347
     27 H6          0.0244   -0.1642    2.1332 H         1 <0>         0.1344
     28 H7         -0.2127   -5.6289    7.2737 H         1 <0>         0.1186
     29 H8          0.8952   -6.7028    9.1541 H         1 <0>         0.1164
     30 H9          3.3494   -6.7595    9.3232 H         1 <0>         0.1203
     31 H10         4.7192   -5.7083    7.5542 H         1 <0>         0.1169
     32 H11         0.0172   -2.2823   -3.2555 H         1 <0>         0.3954
     33 H12         0.0419   -3.7401   -2.4206 H         1 <0>         0.3990
@<TRIPOS>BOND
     1    1    2 1
     2    1   22 1
     3    1   23 1
     4    1   24 1
     5    2    7 ar
     6    2    3 ar
     7    3    4 ar
     8    3   25 1
     9    4    5 ar
    10    4   21 1
    11    5    6 ar
    12    5   26 1
    13    6    7 ar
    14    6    8 1
    15    7   27 1
    16    8    9 2
    17    8   10 2
    18    8   11 1
    19   11   12 1
    20   12   20 1
    21   12   13 2
    22   13   14 1
    23   14   19 ar
    24   14   15 ar
    25   15   16 ar
    26   15   28 1
    27   16   17 ar
    28   16   29 1
    29   17   18 ar
    30   17   30 1
    31   18   19 ar
    32   18   31 1
    33   19   20 1
    34   21   32 1
    35   21   33 1
@<TRIPOS>MOLECULE
ZINC40572412
   42    43     0     0     0
SMALL
USER_CHARGES

@<TRIPOS>ATOM
      1 C1         -0.0187    1.5258    0.0104 C.3       1 <0>        -0.1456
      2 C2          0.0021   -0.0041    0.0020 C.3       1 <0>        -0.0894
      3 H1          0.5123   -0.3556   -0.8948 H         1 <0>         0.0732
      4 C3         -1.4333   -0.5336    0.0129 C.3       1 <0>        -0.1136
      5 C4         -1.4126   -2.0635    0.0045 C.3       1 <0>        -0.1170
      6 C5         -0.6726   -2.5703    1.2440 C.3       1 <0>        -0.1292
      7 C6          0.7628   -2.0407    1.2331 C.3       1 <0>         0.1665
      8 H2          1.2730   -2.3923    0.3363 H         1 <0>         0.0859
      9 C7          0.7421   -0.5109    1.2415 C.3       1 <0>        -0.1202
     10 N1          1.4714   -2.5260    2.4200 N.am      1 <0>        -0.7488
     11 C8          2.0564   -3.7401    2.4061 C.2       1 <0>         0.7106
     12 O1          1.9961   -4.4326    1.4085 O.2       1 <0>        -0.5936
     13 N2          2.7083   -4.1866    3.4980 N.am      1 <0>        -0.7113
     14 C9          3.3442   -5.5063    3.4829 C.3       1 <0>         0.1265
     15 H3          2.7437   -6.1922    2.8853 H         1 <0>         0.0910
     16 C10         3.4503   -6.0289    4.8924 C.ar      1 <0>        -0.0488
     17 C11         3.7846   -5.1717    5.9240 C.ar      1 <0>        -0.1176
     18 C12         3.8819   -5.6512    7.2169 C.ar      1 <0>        -0.1210
     19 C13         3.6445   -6.9877    7.4782 C.ar      1 <0>        -0.1365
     20 C14         3.3093   -7.8447    6.4467 C.ar      1 <0>        -0.1202
     21 C15         3.2078   -7.3644    5.1544 C.ar      1 <0>        -0.1042
     22 C16         4.7224   -5.3929    2.8841 C.2       1 <0>         0.4990
     23 O2          5.2072   -4.2942    2.6737 O.co2     1 <0>        -0.6810
     24 O3          5.3527   -6.4000    2.6100 O.co2     1 <0>        -0.6907
     25 H4          1.0039    1.9031    0.0027 H         1 <0>         0.0549
     26 H5         -0.5459    1.8868   -0.8726 H         1 <0>         0.0535
     27 H6         -0.5289    1.8773    0.9072 H         1 <0>         0.0530
     28 H7         -1.9435   -0.1821    0.9097 H         1 <0>         0.0606
     29 H8         -1.9605   -0.1726   -0.8702 H         1 <0>         0.0602
     30 H9         -2.4352   -2.4408    0.0122 H         1 <0>         0.0612
     31 H10        -0.9024   -2.4150   -0.8923 H         1 <0>         0.0642
     32 H11        -1.1828   -2.2188    2.1408 H         1 <0>         0.0588
     33 H12        -0.6578   -3.6602    1.2380 H         1 <0>         0.0683
     34 H13         1.7647   -0.1336    1.2338 H         1 <0>         0.0693
     35 H14         0.2319   -0.1594    2.1383 H         1 <0>         0.0647
     36 H15         1.5195   -1.9736    3.2158 H         1 <0>         0.3895
     37 H16         2.7563   -3.6341    4.2938 H         1 <0>         0.3862
     38 H17         3.9701   -4.1276    5.7199 H         1 <0>         0.1186
     39 H18         4.1438   -4.9816    8.0228 H         1 <0>         0.1170
     40 H19         3.7213   -7.3624    8.4882 H         1 <0>         0.1152
     41 H20         3.1241   -8.8889    6.6508 H         1 <0>         0.1181
     42 H21         2.9422   -8.0332    4.3491 H         1 <0>         0.1224
@<TRIPOS>BOND
     1    1    2 1
     2    1   25 1
     3    1   26 1
     4    1   27 1
     5    2    3 1
     6    2    9 1
     7    2    4 1
     8    4    5 1
     9    4   28 1
    10    4   29 1
    11    5    6 1
    12    5   30 1
    13    5   31 1
    14    6    7 1
    15    6   32 1
    16    6   33 1
    17    7    8 1
    18    7    9 1
    19    7   10 1
    20    9   34 1
    21    9   35 1
    22   10   11 am
    23   10   36 1
    24   11   12 2
    25   11   13 am
    26   13   14 1
    27   13   37 1
    28   14   15 1
    29   14   16 1
    30   14   22 1
    31   16   21 ar
    32   16   17 ar
    33   17   18 ar
    34   17   38 1
    35   18   19 ar
    36   18   39 1
    37   19   20 ar
    38   19   40 1
    39   20   21 ar
    40   20   41 1
    41   21   42 1
    42   22   23 2
    43   22   24 1
@<TRIPOS>MOLECULE
ZINC49571008
   35    35     0     0     0
SMALL
USER_CHARGES

@<TRIPOS>ATOM
      1 C1         -0.0187    1.5258    0.0104 C.3       1 <0>        -0.1605
      2 C2          0.0021   -0.0041    0.0020 C.3       1 <0>         0.1812
      3 H1          0.5123   -0.3556   -0.8948 H         1 <0>         0.0867
      4 C3         -1.4333   -0.5336    0.0129 C.3       1 <0>        -0.1968
      5 C4         -1.4159   -2.0348   -0.1192 C.2       1 <0>         0.4873
      6 O1         -0.3539   -2.6262   -0.2133 O.co2     1 <0>        -0.6840
      7 O2         -2.4639   -2.6578   -0.1319 O.co2     1 <0>        -0.7095
      8 N1          0.7106   -0.4894    1.1889 N.am      1 <0>        -0.7109
      9 C5          2.0538   -0.5998    1.1737 C.2       1 <0>         0.7145
     10 O3          2.6774   -0.2967    0.1749 O.2       1 <0>        -0.5988
     11 N2          2.7056   -1.0463    2.2656 N.am      1 <0>        -0.7477
     12 C6          4.1656   -1.1663    2.2490 C.3       1 <0>         0.2029
     13 H2          4.4942   -1.4671    1.2542 H         1 <0>         0.0984
     14 C7          4.7923    0.1828    2.6069 C.3       1 <0>        -0.1561
     15 C8          4.5959   -2.2027    3.2549 C.ar      1 <0>        -0.0774
     16 C9          3.9633   -2.2794    4.4820 C.ar      1 <0>        -0.0967
     17 C10         4.3575   -3.2297    5.4050 C.ar      1 <0>        -0.1096
     18 C11         5.3844   -4.1040    5.1016 C.ar      1 <0>        -0.0940
     19 C12         6.0171   -4.0280    3.8742 C.ar      1 <0>        -0.0864
     20 C13         5.6187   -3.0800    2.9486 C.ar      1 <0>        -0.0782
     21 Br1         7.4224   -5.2232    3.4588 Br        1 <0>        -0.0533
     22 H3          1.0039    1.9031    0.0027 H         1 <0>         0.0534
     23 H4         -0.5459    1.8868   -0.8726 H         1 <0>         0.0590
     24 H5         -0.5289    1.8773    0.9072 H         1 <0>         0.0478
     25 H6         -1.9156   -0.2570    0.9504 H         1 <0>         0.0598
     26 H7         -1.9862   -0.1019   -0.8214 H         1 <0>         0.0722
     27 H8          0.2131   -0.7312    1.9857 H         1 <0>         0.3886
     28 H9          2.2081   -1.2881    3.0624 H         1 <0>         0.3913
     29 H10         5.8786    0.0935    2.5946 H         1 <0>         0.0633
     30 H11         4.4811    0.9324    1.8793 H         1 <0>         0.0688
     31 H12         4.4637    0.4836    3.6017 H         1 <0>         0.0556
     32 H13         3.1612   -1.5963    4.7195 H         1 <0>         0.1287
     33 H14         3.8634   -3.2890    6.3635 H         1 <0>         0.1329
     34 H15         5.6928   -4.8461    5.8232 H         1 <0>         0.1317
     35 H16         6.1100   -3.0227    1.9885 H         1 <0>         0.1358
@<TRIPOS>BOND
     1    1    2 1
     2    1   22 1
     3    1   23 1
     4    1   24 1
     5    2    3 1
     6    2    4 1
     7    2    8 1
     8    4    5 1
     9    4   25 1
    10    4   26 1
    11    5    6 2
    12    5    7 1
    13    8    9 am
    14    8   27 1
    15    9   10 2
    16    9   11 am
    17   11   12 1
    18   11   28 1
    19   12   13 1
    20   12   14 1
    21   12   15 1
    22   14   29 1
    23   14   30 1
    24   14   31 1
    25   15   20 ar
    26   15   16 ar
    27   16   17 ar
    28   16   32 1
    29   17   18 ar
    30   17   33 1
    31   18   19 ar
    32   18   34 1
    33   19   20 ar
    34   19   21 1
    35   20   35 1
@<TRIPOS>MOLECULE
ZINC62827771
   42    43     0     0     0
SMALL
USER_CHARGES

@<TRIPOS>ATOM
      1 C1         -0.0184    1.5028    0.0103 C.3       1 <0>        -0.0986
      2 C2          0.0021   -0.0041    0.0020 C.2       1 <0>        -0.0430
      3 C3          0.0066   -0.7115   -1.1412 C.2       1 <0>        -0.2687
      4 S1          0.0327   -2.4000   -0.5809 S.3       1 <0>         0.1996
      5 C4          0.0371   -2.1618    1.0798 C.2       1 <0>         0.0683
      6 C5          0.0242   -0.7786    1.2238 C.2       1 <0>        -0.2468
      7 C6          0.0278   -0.1607    2.4995 C.2       1 <0>         0.5407
      8 O1          0.0120    1.0610    2.5884 O.co2     1 <0>        -0.6840
      9 O2          0.0468   -0.8484    3.5131 O.co2     1 <0>        -0.7098
     10 N1          0.0545   -3.1215    2.0775 N.am      1 <0>        -0.6140
     11 C7          0.0709   -4.4297    1.7539 C.2       1 <0>         0.6940
     12 O3          0.0705   -4.7671    0.5859 O.2       1 <0>        -0.5711
     13 N2          0.0877   -5.3640    2.7252 N.am      1 <0>        -0.7371
     14 C8          0.1056   -6.7860    2.3734 C.3       1 <0>         0.1658
     15 H1         -0.4856   -6.9447    1.4715 H         1 <0>         0.0892
     16 C9          1.5477   -7.2314    2.1228 C.3       1 <0>        -0.1322
     17 C10         1.5664   -8.7165    1.7554 C.3       1 <0>        -0.1158
     18 C11         0.9727   -9.5336    2.9047 C.3       1 <0>        -0.1156
     19 C12        -0.4694   -9.0883    3.1553 C.3       1 <0>        -0.0876
     20 H2         -1.0606   -9.2469    2.2534 H         1 <0>         0.0729
     21 C13        -0.4881   -7.6032    3.5227 C.3       1 <0>        -0.1226
     22 C14        -1.0631   -9.9054    4.3045 C.3       1 <0>        -0.1467
     23 C15        -0.0072   -0.1975   -2.5578 C.3       1 <0>        -0.0484
     24 H3          1.0042    1.8801    0.0026 H         1 <0>         0.0567
     25 H4         -0.5455    1.8639   -0.8728 H         1 <0>         0.0419
     26 H5         -0.5286    1.8543    0.9071 H         1 <0>         0.1052
     27 H6          0.0548   -2.8524    3.0094 H         1 <0>         0.4303
     28 H7          0.0881   -5.0949    3.6571 H         1 <0>         0.3997
     29 H8          1.9707   -6.6492    1.3040 H         1 <0>         0.0700
     30 H9          2.1389   -7.0727    3.0247 H         1 <0>         0.0627
     31 H10         0.9752   -8.8751    0.8535 H         1 <0>         0.0643
     32 H11         2.5938   -9.0337    1.5769 H         1 <0>         0.0635
     33 H12         0.9860  -10.5916    2.6430 H         1 <0>         0.0618
     34 H13         1.5639   -9.3750    3.8066 H         1 <0>         0.0623
     35 H14         0.1031   -7.4445    4.4246 H         1 <0>         0.0688
     36 H15        -1.5155   -7.2859    3.7012 H         1 <0>         0.0700
     37 H16        -0.4719   -9.7468    5.2064 H         1 <0>         0.0545
     38 H17        -2.0905   -9.5882    4.4831 H         1 <0>         0.0549
     39 H18        -1.0498  -10.9635    4.0428 H         1 <0>         0.0546
     40 H19         1.0171   -0.0592   -2.9041 H         1 <0>         0.0620
     41 H20        -0.5140   -0.9172   -3.2005 H         1 <0>         0.0597
     42 H21        -0.5345    0.7558   -2.5933 H         1 <0>         0.0686
@<TRIPOS>BOND
     1    1    2 1
     2    1   24 1
     3    1   25 1
     4    1   26 1
     5    2    6 1
     6    2    3 2
     7    3    4 1
     8    3   23 1
     9    4    5 1
    10    5    6 2
    11    5   10 1
    12    6    7 1
    13    7    8 2
    14    7    9 1
    15   10   11 am
    16   10   27 1
    17   11   12 2
    18   11   13 am
    19   13   14 1
    20   13   28 1
    21   14   15 1
    22   14   21 1
    23   14   16 1
    24   16   17 1
    25   16   29 1
    26   16   30 1
    27   17   18 1
    28   17   31 1
    29   17   32 1
    30   18   19 1
    31   18   33 1
    32   18   34 1
    33   19   20 1
    34   19   21 1
    35   19   22 1
    36   21   35 1
    37   21   36 1
    38   22   37 1
    39   22   38 1
    40   22   39 1
    41   23   40 1
    42   23   41 1
    43   23   42 1
@<TRIPOS>MOLECULE
ZINC20058191
   39    41     0     0     0
SMALL
USER_CHARGES
5-(hydroxymethyl)-2-methyl-4-[(Z)-(2-quinolylhydrazono)methyl]pyridin-3-ol
@<TRIPOS>ATOM
      1 C1          2.0987    4.9385    2.6704 C.3       1 <0>        -0.1009
      2 C2          2.1447    3.8495    1.6297 C.ar      1 <0>         0.0991
      3 C3          1.0364    3.0425    1.4352 C.ar      1 <0>         0.1215
      4 C4          1.0957    2.0319    0.4602 C.ar      1 <0>        -0.1576
      5 C5          2.2839    1.8871   -0.2679 C.ar      1 <0>        -0.0814
      6 C6          3.3354    2.7404   -0.0093 C.ar      1 <0>         0.0855
      7 N1          3.2400    3.6774    0.9151 N.ar      1 <0>        -0.4393
      8 C7          2.4090    0.8174   -1.3220 C.3       1 <0>         0.1300
      9 O1          3.7086    0.8806   -1.9129 O.3       1 <0>        -0.5982
     10 C8         -0.0562    1.1464    0.2151 C.2       1 <0>         0.0813
     11 N2         -1.2158    1.6545   -0.0736 N.2       1 <0>        -0.1888
     12 N3         -1.3453    3.0349   -0.2749 N.pl3     1 <0>        -0.5795
     13 C9         -2.5994    3.5916   -0.4756 C.ar      1 <0>         0.4319
     14 C10        -2.7110    4.9763   -0.6698 C.ar      1 <0>        -0.2054
     15 C11        -3.9359    5.5363   -0.8735 C.ar      1 <0>        -0.0201
     16 C12        -5.0656    4.6923   -0.8703 C.ar      1 <0>        -0.1415
     17 C13        -6.3573    5.2039   -1.0673 C.ar      1 <0>        -0.0815
     18 C14        -7.4254    4.3587   -1.0582 C.ar      1 <0>        -0.1337
     19 C15        -7.2528    2.9916   -0.8547 C.ar      1 <0>        -0.0886
     20 C16        -6.0139    2.4620   -0.6601 C.ar      1 <0>        -0.1072
     21 C17        -4.8874    3.3026   -0.6633 C.ar      1 <0>         0.1717
     22 N4         -3.6590    2.8083   -0.4741 N.ar      1 <0>        -0.5081
     23 O2         -0.0889    3.2241    2.1745 O.3       1 <0>        -0.4917
     24 H1          1.1152    4.9335    3.1630 H         1 <0>         0.0814
     25 H2          2.2624    5.9136    2.1883 H         1 <0>         0.0784
     26 H3          2.8849    4.7632    3.4195 H         1 <0>         0.0793
     27 H4          4.2532    2.6377   -0.5692 H         1 <0>         0.1713
     28 H5          2.2635   -0.1706   -0.8608 H         1 <0>         0.0660
     29 H6          1.6454    0.9759   -2.0977 H         1 <0>         0.0613
     30 H7          3.9864    0.1728   -2.7078 H         1 <0>         0.4217
     31 H8          0.0661    0.0550    0.2767 H         1 <0>         0.1960
     32 H9         -0.4522    3.6771   -0.2737 H         1 <0>         0.4190
     33 H10        -1.8270    5.5967   -0.6620 H         1 <0>         0.1357
     34 H11        -4.0397    6.6001   -1.0287 H         1 <0>         0.1443
     35 H12        -6.5037    6.2621   -1.2260 H         1 <0>         0.1286
     36 H13        -8.4190    4.7536   -1.2103 H         1 <0>         0.1266
     37 H14        -8.1153    2.3416   -0.8510 H         1 <0>         0.1292
     38 H15        -5.8970    1.3998   -0.5034 H         1 <0>         0.1342
     39 H16        -0.9639    2.5776    2.0122 H         1 <0>         0.4295
@<TRIPOS>BOND
     1    1    2 1
     2    1   24 1
     3    1   25 1
     4    1   26 1
     5    2    7 ar
     6    2    3 ar
     7    3    4 ar
     8    3   23 1
     9    4    5 ar
    10    4   10 1
    11    5    6 ar
    12    5    8 1
    13    6    7 ar
    14    6   27 1
    15    8    9 1
    16    8   28 1
    17    8   29 1
    18    9   30 1
    19   10   11 2
    20   10   31 1
    21   11   12 1
    22   12   13 1
    23   12   32 1
    24   13   22 ar
    25   13   14 ar
    26   14   15 ar
    27   14   33 1
    28   15   16 ar
    29   15   34 1
    30   16   21 ar
    31   16   17 ar
    32   17   18 ar
    33   17   35 1
    34   18   19 ar
    35   18   36 1
    36   19   20 ar
    37   19   37 1
    38   20   21 ar
    39   20   38 1
    40   21   22 ar
    41   23   39 1
@<TRIPOS>MOLECULE
ZINC04114865
   41    43     0     0     0
SMALL
USER_CHARGES

@<TRIPOS>ATOM
      1 C1         -0.0187    1.5258    0.0104 C.3       1 <0>        -0.1515
      2 C2          0.0021   -0.0041    0.0020 C.3       1 <0>        -0.1172
      3 C3         -1.4333   -0.5336    0.0129 C.3       1 <0>        -0.0628
      4 C4         -1.4129   -2.0405    0.0046 C.2       1 <0>         0.1426
      5 C5         -1.3029   -2.8368    1.0785 C.2       1 <0>        -0.2637
      6 C6         -1.3240   -4.1774    0.6349 C.2       1 <0>         0.2687
      7 N1         -1.4444   -4.1707   -0.6610 N.2       1 <0>        -0.2592
      8 N2         -1.5081   -2.8346   -1.0869 N.pl3     1 <0>        -0.4617
      9 H1         -1.6018   -2.5331   -2.0041 H         1 <0>         0.4492
     10 O1         -1.2263   -5.2242    1.4977 O.3       1 <0>        -0.2119
     11 C7         -0.8376   -4.9540    2.7597 C.2       1 <0>         0.4383
     12 C8         -0.7890   -3.7173    3.2971 C.2       1 <0>        -0.2625
     13 C9         -1.1746   -2.4741    2.5360 C.3       1 <0>         0.1292
     14 H2         -0.4044   -1.7128    2.6593 H         1 <0>         0.1022
     15 C10        -2.4925   -1.9533    3.0485 C.ar      1 <0>        -0.1032
     16 C11        -3.6154   -2.7576    3.0114 C.ar      1 <0>        -0.0630
     17 C12        -4.8248   -2.2802    3.4810 C.ar      1 <0>        -0.1556
     18 C13        -4.9141   -0.9972    3.9893 C.ar      1 <0>        -0.0808
     19 C14        -3.7944   -0.1894    4.0290 C.ar      1 <0>        -0.2077
     20 C15        -2.5782   -0.6680    3.5632 C.ar      1 <0>         0.1327
     21 O2         -1.4739    0.1229    3.6063 O.3       1 <0>        -0.3121
     22 C16        -1.6362    1.4347    4.1493 C.3       1 <0>         0.0262
     23 C17        -0.3508   -3.5790    4.6534 C.1       1 <0>         0.2734
     24 N3         -0.0032   -3.4692    5.7293 N.1       1 <0>        -0.4443
     25 N4         -0.4658   -6.0104    3.5534 N.pl3     1 <0>        -0.8324
     26 H3          1.0039    1.9031    0.0027 H         1 <0>         0.0583
     27 H4         -0.5459    1.8868   -0.8726 H         1 <0>         0.0541
     28 H5         -0.5289    1.8773    0.9072 H         1 <0>         0.0579
     29 H6          0.5123   -0.3556   -0.8948 H         1 <0>         0.0627
     30 H7          0.5293   -0.3651    0.8851 H         1 <0>         0.0729
     31 H8         -1.9435   -0.1821    0.9097 H         1 <0>         0.0980
     32 H9         -1.9605   -0.1726   -0.8702 H         1 <0>         0.0802
     33 H10        -3.5482   -3.7599    2.6149 H         1 <0>         0.1210
     34 H11        -5.7015   -2.9101    3.4505 H         1 <0>         0.1225
     35 H12        -5.8602   -0.6264    4.3552 H         1 <0>         0.1234
     36 H13        -3.8646    0.8125    4.4260 H         1 <0>         0.1275
     37 H14        -1.9841    1.3609    5.1797 H         1 <0>         0.0546
     38 H15        -0.6808    1.9588    4.1250 H         1 <0>         0.1004
     39 H16        -2.3676    1.9850    3.5574 H         1 <0>         0.0556
     40 H17        -0.4884   -6.9136    3.2006 H         1 <0>         0.4115
     41 H18        -0.1803   -5.8536    4.4671 H         1 <0>         0.4263
@<TRIPOS>BOND
     1    1    2 1
     2    1   26 1
     3    1   27 1
     4    1   28 1
     5    2    3 1
     6    2   29 1
     7    2   30 1
     8    3    4 1
     9    3   31 1
    10    3   32 1
    11    4    8 1
    12    4    5 2
    13    5   13 1
    14    5    6 1
    15    6    7 2
    16    6   10 1
    17    7    8 1
    18    8    9 1
    19   10   11 1
    20   11   12 2
    21   11   25 1
    22   12   13 1
    23   12   23 1
    24   13   14 1
    25   13   15 1
    26   15   20 ar
    27   15   16 ar
    28   16   17 ar
    29   16   33 1
    30   17   18 ar
    31   17   34 1
    32   18   19 ar
    33   18   35 1
    34   19   20 ar
    35   19   36 1
    36   20   21 1
    37   21   22 1
    38   22   37 1
    39   22   38 1
    40   22   39 1
    41   23   24 3
    42   25   40 1
    43   25   41 1
@<TRIPOS>MOLECULE
ZINC48585667
   49    50     0     0     0
SMALL
USER_CHARGES

@<TRIPOS>ATOM
      1 C1          0.4738    0.2812    2.2111 C.3       1 <0>        -0.1354
      2 C2          0.2208   -0.5590    0.9577 C.3       1 <0>        -0.1128
      3 C3          1.2029   -1.7317    0.9230 C.3       1 <0>        -0.1468
      4 C4         -1.1907   -1.0864    0.9829 C.2       1 <0>         0.5160
      5 O1         -1.9223   -0.8168    1.9120 O.2       1 <0>        -0.5170
      6 N1         -1.6400   -1.8576   -0.0270 N.am      1 <0>        -0.6737
      7 C5         -2.9173   -2.4273    0.0419 C.ar      1 <0>         0.1344
      8 C6         -3.1440   -3.6902   -0.4898 C.ar      1 <0>        -0.1261
      9 C7         -4.4028   -4.2519   -0.4220 C.ar      1 <0>        -0.0982
     10 C8         -5.4435   -3.5538    0.1783 C.ar      1 <0>         0.1203
     11 C9         -5.2165   -2.2905    0.7101 C.ar      1 <0>        -0.1171
     12 C10        -3.9561   -1.7316    0.6471 C.ar      1 <0>        -0.1017
     13 N2         -6.7191   -4.1225    0.2467 N.am      1 <0>        -0.6410
     14 C11        -6.8558   -5.4518    0.4217 C.2       1 <0>         0.5074
     15 O2         -5.8745   -6.1662    0.4359 O.2       1 <0>        -0.5002
     16 C12        -8.2145   -6.0459    0.5980 C.2       1 <0>         0.5116
     17 O3         -9.1956   -5.3317    0.5837 O.2       1 <0>        -0.5142
     18 N3         -8.3512   -7.3753    0.7729 N.am      1 <0>        -0.6944
     19 C13        -9.6841   -7.9581    0.9459 C.3       1 <0>         0.1429
     20 C14       -10.0919   -7.8706    2.4179 C.3       1 <0>        -0.1311
     21 C15       -11.4839   -8.4793    2.5986 C.3       1 <0>        -0.1171
     22 C16       -11.4599   -9.9456    2.1623 C.3       1 <0>        -0.1239
     23 C17       -11.0521  -10.0331    0.6902 C.3       1 <0>        -0.1159
     24 C18        -9.6601   -9.4244    0.5096 C.3       1 <0>        -0.1278
     25 H1          1.4947    0.6626    2.1929 H         1 <0>         0.0651
     26 H2         -0.2259    1.1166    2.2359 H         1 <0>         0.0634
     27 H3          0.3327   -0.3373    3.0976 H         1 <0>         0.0636
     28 H4          0.3618    0.0594    0.0713 H         1 <0>         0.1013
     29 H5          1.0227   -2.3302    0.0300 H         1 <0>         0.0600
     30 H6          2.2238   -1.3502    0.9048 H         1 <0>         0.0723
     31 H7          1.0619   -2.3501    1.8094 H         1 <0>         0.0628
     32 H8         -1.0786   -2.0180   -0.8016 H         1 <0>         0.4117
     33 H9         -2.3352   -4.2326   -0.9567 H         1 <0>         0.1313
     34 H10        -4.5791   -5.2338   -0.8358 H         1 <0>         0.1438
     35 H11        -6.0252   -1.7477    1.1768 H         1 <0>         0.1327
     36 H12        -3.7786   -0.7514    1.0644 H         1 <0>         0.1451
     37 H13        -7.5056   -3.5602    0.1683 H         1 <0>         0.4236
     38 H14        -7.5670   -7.9461    0.7843 H         1 <0>         0.4131
     39 H15       -10.4023   -7.4095    0.3366 H         1 <0>         0.0941
     40 H16        -9.3736   -8.4192    3.0272 H         1 <0>         0.0669
     41 H17       -10.1089   -6.8260    2.7287 H         1 <0>         0.0686
     42 H18       -11.7744   -8.4169    3.6473 H         1 <0>         0.0674
     43 H19       -12.2022   -7.9306    1.9893 H         1 <0>         0.0658
     44 H20       -10.7416  -10.4942    2.7715 H         1 <0>         0.0639
     45 H21       -12.4516  -10.3792    2.2910 H         1 <0>         0.0660
     46 H22       -11.0350  -11.0777    0.3794 H         1 <0>         0.0699
     47 H23       -11.7704   -9.4844    0.0810 H         1 <0>         0.0665
     48 H24        -9.3696   -9.4867   -0.5391 H         1 <0>         0.0716
     49 H25        -8.9418   -9.9730    1.1188 H         1 <0>         0.0715
@<TRIPOS>BOND
     1    1    2 1
     2    1   25 1
     3    1   26 1
     4    1   27 1
     5    2    3 1
     6    2    4 1
     7    2   28 1
     8    3   29 1
     9    3   30 1
    10    3   31 1
    11    4    5 2
    12    4    6 am
    13    6    7 1
    14    6   32 1
    15    7   12 ar
    16    7    8 ar
    17    8    9 ar
    18    8   33 1
    19    9   10 ar
    20    9   34 1
    21   10   11 ar
    22   10   13 1
    23   11   12 ar
    24   11   35 1
    25   12   36 1
    26   13   14 am
    27   13   37 1
    28   14   15 2
    29   14   16 1
    30   16   17 2
    31   16   18 am
    32   18   19 1
    33   18   38 1
    34   19   24 1
    35   19   20 1
    36   19   39 1
    37   20   21 1
    38   20   40 1
    39   20   41 1
    40   21   22 1
    41   21   42 1
    42   21   43 1
    43   22   23 1
    44   22   44 1
    45   22   45 1
    46   23   24 1
    47   23   46 1
    48   23   47 1
    49   24   48 1
    50   24   49 1
@<TRIPOS>MOLECULE
ZINC56207475
   41    41     0     0     0
SMALL
USER_CHARGES

@<TRIPOS>ATOM
      1 C1         -0.0187    1.5258    0.0104 C.3       1 <0>        -0.1711
      2 C2          0.0021   -0.0041    0.0020 C.3       1 <0>         0.1322
      3 H1          0.5293   -0.3651    0.8851 H         1 <0>         0.1168
      4 C3          0.7074   -0.4901   -1.2379 C.2       1 <0>         0.5167
      5 O1          0.1202   -1.1907   -2.0341 O.2       1 <0>        -0.4555
      6 N1          1.9912   -0.1458   -1.4616 N.am      1 <0>        -0.6879
      7 C4          2.6220   -0.5804   -2.5704 C.2       1 <0>         0.6935
      8 O2          2.0333   -1.2829   -3.3687 O.2       1 <0>        -0.5259
      9 N2          3.9057   -0.2362   -2.7941 N.am      1 <0>        -0.7320
     10 C5          4.5914   -0.7086   -3.9995 C.3       1 <0>         0.1510
     11 C6          5.7291    0.2529   -4.3490 C.3       1 <0>        -0.1615
     12 C7          5.1634   -2.1050   -3.7466 C.3       1 <0>        -0.1669
     13 N3         -1.3723   -0.5112    0.0124 N.pl3     1 <0>        -0.7190
     14 C8         -2.0537   -0.6607    1.2253 C.ar      1 <0>         0.2740
     15 C9         -1.4293   -0.3231    2.4187 C.ar      1 <0>        -0.2387
     16 C10        -2.1033   -0.4706    3.6177 C.ar      1 <0>         0.1648
     17 C11        -3.4035   -0.9565    3.6279 C.ar      1 <0>        -0.0334
     18 C12        -4.0279   -1.2940    2.4350 C.ar      1 <0>         0.1659
     19 C13        -3.3563   -1.1413    1.2353 C.ar      1 <0>        -0.2256
     20 F1         -5.2933   -1.7673    2.4452 F         1 <0>        -0.1192
     21 O3         -4.0662   -1.1024    4.8078 O.3       1 <0>        -0.3161
     22 C14        -4.8270    0.0166    5.2673 C.3       1 <0>         0.0283
     23 F2         -1.4958   -0.1421    4.7788 F         1 <0>        -0.1202
     24 H2          1.0039    1.9031    0.0027 H         1 <0>         0.0746
     25 H3         -0.5459    1.8868   -0.8726 H         1 <0>         0.0720
     26 H4         -0.5289    1.8773    0.9072 H         1 <0>         0.0816
     27 H5          2.4610    0.4148   -0.8245 H         1 <0>         0.4113
     28 H6          4.3756    0.3244   -2.1571 H         1 <0>         0.3985
     29 H7          3.8837   -0.7503   -4.8274 H         1 <0>         0.0915
     30 H8          6.4368    0.2946   -3.5211 H         1 <0>         0.0626
     31 H9          6.2393   -0.0987   -5.2458 H         1 <0>         0.0774
     32 H10         5.3216    1.2477   -4.5291 H         1 <0>         0.0630
     33 H11         4.3529   -2.7900   -3.4976 H         1 <0>         0.0614
     34 H12         5.6736   -2.4565   -4.6434 H         1 <0>         0.0696
     35 H13         5.8711   -2.0633   -2.9187 H         1 <0>         0.0577
     36 H14        -1.8100   -0.7432   -0.8215 H         1 <0>         0.4177
     37 H15        -0.4174    0.0542    2.4108 H         1 <0>         0.1464
     38 H16        -3.8437   -1.3998    0.3068 H         1 <0>         0.1486
     39 H17        -5.3031   -0.2325    6.2156 H         1 <0>         0.0994
     40 H18        -4.1665    0.8726    5.4061 H         1 <0>         0.0481
     41 H19        -5.5915    0.2633    4.5306 H         1 <0>         0.0484
@<TRIPOS>BOND
     1    1    2 1
     2    1   24 1
     3    1   25 1
     4    1   26 1
     5    2    3 1
     6    2    4 1
     7    2   13 1
     8    4    5 2
     9    4    6 am
    10    6    7 am
    11    6   27 1
    12    7    8 2
    13    7    9 am
    14    9   10 1
    15    9   28 1
    16   10   11 1
    17   10   12 1
    18   10   29 1
    19   11   30 1
    20   11   31 1
    21   11   32 1
    22   12   33 1
    23   12   34 1
    24   12   35 1
    25   13   14 1
    26   13   36 1
    27   14   19 ar
    28   14   15 ar
    29   15   16 ar
    30   15   37 1
    31   16   17 ar
    32   16   23 1
    33   17   18 ar
    34   17   21 1
    35   18   19 ar
    36   18   20 1
    37   19   38 1
    38   21   22 1
    39   22   39 1
    40   22   40 1
    41   22   41 1
@<TRIPOS>MOLECULE
ZINC29799353
   36    39     0     0     0
SMALL
USER_CHARGES

@<TRIPOS>ATOM
      1 C1          2.1316    1.4063   -0.7486 C.ar      1 <0>        -0.0931
      2 C2          1.2008    2.0889    0.0086 C.ar      1 <0>        -0.1047
      3 C3          0.2658    1.3837    0.7669 C.ar      1 <0>        -0.0136
      4 C4          0.2750   -0.0103    0.7566 C.ar      1 <0>        -0.1122
      5 C5          1.2133   -0.6870   -0.0072 C.ar      1 <0>         0.1534
      6 C6          2.1411    0.0244   -0.7591 C.ar      1 <0>        -0.1360
      7 N1          1.2267   -2.0856   -0.0209 N.am      1 <0>        -0.6704
      8 C7          0.0719   -2.7717    0.0886 C.2       1 <0>         0.5670
      9 O1         -0.9890   -2.1780    0.1025 O.2       1 <0>        -0.5150
     10 C8          0.0950   -4.2444    0.1917 C.ar      1 <0>        -0.1532
     11 C9          1.3194   -4.9265    0.1812 C.ar      1 <0>        -0.0715
     12 C10         1.3539   -6.2871    0.2754 C.ar      1 <0>        -0.1119
     13 C11         0.1707   -7.0100    0.3828 C.ar      1 <0>         0.0705
     14 C12        -1.0671   -6.3415    0.3954 C.ar      1 <0>         0.0348
     15 C13        -1.0983   -4.9508    0.3047 C.ar      1 <0>         0.0150
     16 N2         -2.0299   -7.2935    0.5083 N.2       1 <0>        -0.4860
     17 C14        -1.4757   -8.4689    0.5641 C.2       1 <0>         0.2685
     18 N3         -0.1218   -8.3522    0.4909 N.pl3     1 <0>        -0.5989
     19 H1          0.5193   -9.0799    0.5112 H         1 <0>         0.4282
     20 C15        -0.7324    2.1133    1.5801 C.2       1 <0>         0.1266
     21 C16        -0.8598    3.4699    1.6798 C.2       1 <0>        -0.2513
     22 C17        -1.9205    3.7374    2.5456 C.2       1 <0>         0.0481
     23 N4         -2.4202    2.5998    2.9574 N.2       1 <0>        -0.2839
     24 N5         -1.6986    1.5563    2.3635 N.pl3     1 <0>        -0.4706
     25 H2         -1.8567    0.6076    2.4892 H         1 <0>         0.4392
     26 H3          2.8519    1.9540   -1.3381 H         1 <0>         0.1355
     27 H4          1.1965    3.1689    0.0142 H         1 <0>         0.1339
     28 H5         -0.4462   -0.5612    1.3420 H         1 <0>         0.1327
     29 H6          2.8714   -0.5044   -1.3536 H         1 <0>         0.1308
     30 H7          2.0672   -2.5617   -0.1093 H         1 <0>         0.4124
     31 H8          2.2419   -4.3711    0.0977 H         1 <0>         0.1340
     32 H9          2.3022   -6.8039    0.2661 H         1 <0>         0.1328
     33 H10        -2.0421   -4.4258    0.3173 H         1 <0>         0.1471
     34 H11        -2.0121   -9.4019    0.6552 H         1 <0>         0.2225
     35 H12        -0.2480    4.2047    1.1777 H         1 <0>         0.1521
     36 H13        -2.2705    4.7189    2.8291 H         1 <0>         0.1871
@<TRIPOS>BOND
     1    1    6 ar
     2    1    2 ar
     3    1   26 1
     4    2    3 ar
     5    2   27 1
     6    3    4 ar
     7    3   20 1
     8    4    5 ar
     9    4   28 1
    10    5    6 ar
    11    5    7 1
    12    6   29 1
    13    7    8 am
    14    7   30 1
    15    8    9 2
    16    8   10 1
    17   10   15 ar
    18   10   11 ar
    19   11   12 ar
    20   11   31 1
    21   12   13 ar
    22   12   32 1
    23   13   18 1
    24   13   14 ar
    25   14   15 ar
    26   14   16 1
    27   15   33 1
    28   16   17 2
    29   17   18 1
    30   17   34 1
    31   18   19 1
    32   20   24 1
    33   20   21 2
    34   21   22 1
    35   21   35 1
    36   22   23 2
    37   22   36 1
    38   23   24 1
    39   24   25 1
@<TRIPOS>MOLECULE
ZINC05073742
   36    38     0     0     0
SMALL
USER_CHARGES
2-(4-oxo-2-thia-5-azabicyclo[4.4.0]deca-7,9,11-trien-3-yl)-N-(1H-pyrrol-2-ylmethyleneamino)acetamide
@<TRIPOS>ATOM
      1 C1          6.8261   -7.5541   -4.6351 C.ar      1 <0>        -0.0819
      2 C2          6.7719   -6.2357   -5.0495 C.ar      1 <0>        -0.1251
      3 C3          6.9867   -5.2179   -4.1384 C.ar      1 <0>        -0.0569
      4 C4          7.2541   -5.5224   -2.8139 C.ar      1 <0>        -0.1448
      5 C5          7.3039   -6.8489   -2.3867 C.ar      1 <0>         0.1549
      6 C6          7.0902   -7.8628   -3.3155 C.ar      1 <0>        -0.1398
      7 N1          7.5479   -7.1855   -1.0586 N.am      1 <0>        -0.6522
      8 C7          7.4607   -6.3778   -0.0068 C.2       1 <0>         0.5292
      9 O1          7.8144   -6.7986    1.0745 O.2       1 <0>        -0.5041
     10 C8          6.9445   -4.9650   -0.0919 C.3       1 <0>        -0.0834
     11 H1          7.3150   -4.3847    0.7531 H         1 <0>         0.1613
     12 S1          7.5366   -4.2281   -1.6462 S.3       1 <0>        -0.0420
     13 C9          5.4146   -4.9747   -0.0775 C.3       1 <0>        -0.1268
     14 C10         4.9033   -3.5572   -0.0646 C.2       1 <0>         0.5383
     15 O2          5.6858   -2.6300   -0.0667 O.2       1 <0>        -0.4832
     16 N2          3.5767   -3.3194   -0.0507 N.am      1 <0>        -0.5812
     17 N3          3.1014   -2.0015   -0.0387 N.2       1 <0>        -0.2514
     18 C11         1.8213   -1.7720   -0.0253 C.2       1 <0>         0.1474
     19 C12         1.3236   -0.3921   -0.0127 C.2       1 <0>         0.0297
     20 C13         0.0021   -0.0041    0.0020 C.2       1 <0>        -0.1444
     21 C14        -0.0169    1.3980    0.0097 C.2       1 <0>        -0.2043
     22 C15         1.2640    1.8295   -0.0002 C.2       1 <0>         0.0146
     23 N4          2.0914    0.7477   -0.0139 N.pl3     1 <0>        -0.5364
     24 H2          3.0609    0.7769   -0.0230 H         1 <0>         0.4233
     25 H3          6.6611   -8.3477   -5.3488 H         1 <0>         0.1343
     26 H4          6.5618   -6.0016   -6.0827 H         1 <0>         0.1348
     27 H5          6.9458   -4.1874   -4.4590 H         1 <0>         0.1372
     28 H6          7.1310   -8.8957   -3.0028 H         1 <0>         0.1338
     29 H7          7.8078   -8.1033   -0.8826 H         1 <0>         0.4155
     30 H8          5.0629   -5.4960    0.8128 H         1 <0>         0.1177
     31 H9          5.0461   -5.4858   -0.9670 H         1 <0>         0.1061
     32 H10         2.9511   -4.0606   -0.0490 H         1 <0>         0.3874
     33 H11         1.1248   -2.5974   -0.0234 H         1 <0>         0.1355
     34 H12        -0.8581   -0.6571    0.0062 H         1 <0>         0.1446
     35 H13        -0.8983    2.0220    0.0175 H         1 <0>         0.1427
     36 H14         1.5795    2.8624    0.0027 H         1 <0>         0.1696
@<TRIPOS>BOND
     1    1    6 ar
     2    1    2 ar
     3    1   25 1
     4    2    3 ar
     5    2   26 1
     6    3    4 ar
     7    3   27 1
     8    4   12 1
     9    4    5 ar
    10    5    6 ar
    11    5    7 1
    12    6   28 1
    13    7    8 am
    14    7   29 1
    15    8    9 2
    16    8   10 1
    17   10   11 1
    18   10   12 1
    19   10   13 1
    20   13   14 1
    21   13   30 1
    22   13   31 1
    23   14   15 2
    24   14   16 am
    25   16   17 1
    26   16   32 1
    27   17   18 2
    28   18   19 1
    29   18   33 1
    30   19   23 1
    31   19   20 2
    32   20   21 1
    33   20   34 1
    34   21   22 2
    35   21   35 1
    36   22   23 1
    37   22   36 1
    38   23   24 1
@<TRIPOS>MOLECULE
ZINC20276264
   48    49     0     0     0
SMALL
USER_CHARGES
2-[(2R)-7-amino-2-isopropyl-3-oxo-1,4-benzoxazin-4-yl]-N-sec-butyl-acetamide
@<TRIPOS>ATOM
      1 C1         -2.0625    0.5439   -2.0688 C.3       1 <0>        -0.1536
      2 C2         -2.3758    0.7923   -0.5920 C.3       1 <0>        -0.1301
      3 C3         -1.2896    1.6810    0.0173 C.3       1 <0>         0.1444
      4 H1         -1.1551    2.5940   -0.5813 H         1 <0>         0.0864
      5 C4         -1.6665    2.0319    1.4580 C.3       1 <0>        -0.1651
      6 N1         -0.0111    0.9658    0.0074 N.am      1 <0>        -0.7360
      7 C5          1.1468    1.6555   -0.0000 C.2       1 <0>         0.5001
      8 O1          1.1304    2.8682    0.0067 O.2       1 <0>        -0.5250
      9 C6          2.4620    0.9199   -0.0165 C.3       1 <0>         0.0875
     10 N2          3.5624    1.8869   -0.0218 N.am      1 <0>        -0.5260
     11 C7          4.0905    2.3599   -1.2345 C.ar      1 <0>         0.0344
     12 C8          3.8113    1.7160   -2.4270 C.ar      1 <0>        -0.0717
     13 C9          4.3346    2.1998   -3.6114 C.ar      1 <0>        -0.1987
     14 C10         5.1366    3.3339   -3.6072 C.ar      1 <0>         0.2415
     15 C11         5.4150    3.9859   -2.4127 C.ar      1 <0>        -0.1977
     16 C12         4.8912    3.5028   -1.2269 C.ar      1 <0>         0.1404
     17 O2          5.1538    4.1284   -0.0484 O.3       1 <0>        -0.2976
     18 C13         5.2457    3.2996    1.1132 C.3       1 <0>         0.0904
     19 H2          5.1967    3.9782    1.9776 H         1 <0>         0.1479
     20 C14         4.0888    2.3335    1.1394 C.2       1 <0>         0.5027
     21 O3          3.6326    1.9583    2.1989 O.2       1 <0>        -0.5106
     22 C15         6.5608    2.5185    1.0787 C.3       1 <0>        -0.1133
     23 C16         7.7355    3.4984    1.0522 C.3       1 <0>        -0.1434
     24 C17         6.6619    1.6348    2.3236 C.3       1 <0>        -0.1514
     25 N3          5.6650    3.8199   -4.8077 N.pl3     1 <0>        -0.8951
     26 H3         -2.8434   -0.0950   -2.5068 H         1 <0>         0.0570
     27 H4         -1.0869    0.0436   -2.1575 H         1 <0>         0.0550
     28 H5         -2.0319    1.5046   -2.6037 H         1 <0>         0.0549
     29 H6         -3.3514    1.2926   -0.5033 H         1 <0>         0.0785
     30 H7         -2.4064   -0.1684   -0.0570 H         1 <0>         0.0696
     31 H8         -0.8856    2.6708    1.8960 H         1 <0>         0.0599
     32 H9         -1.7584    1.1083    2.0483 H         1 <0>         0.0580
     33 H10        -2.6265    2.5689    1.4654 H         1 <0>         0.0655
     34 H11         0.0038   -0.1341    0.0060 H         1 <0>         0.4176
     35 H12         2.5374    0.2835    0.8776 H         1 <0>         0.1211
     36 H13         2.5203    0.2932   -0.9186 H         1 <0>         0.1154
     37 H14         3.1879    0.8340   -2.4316 H         1 <0>         0.1271
     38 H15         4.1198    1.6949   -4.5416 H         1 <0>         0.1271
     39 H16         6.0383    4.8678   -2.4097 H         1 <0>         0.1346
     40 H17         6.5891    1.8878    0.1779 H         1 <0>         0.0804
     41 H18         8.6810    2.9368    1.0274 H         1 <0>         0.0630
     42 H19         7.7072    4.1291    1.9530 H         1 <0>         0.0613
     43 H20         7.6628    4.1338    0.1572 H         1 <0>         0.0646
     44 H21         7.6074    1.0732    2.2988 H         1 <0>         0.0658
     45 H22         5.8174    0.9303    2.3427 H         1 <0>         0.0601
     46 H23         6.6336    2.2656    3.2243 H         1 <0>         0.0648
     47 H24         6.3002    4.7179   -4.8054 H         1 <0>         0.4189
     48 H25         5.4453    3.3040   -5.7541 H         1 <0>         0.4194
@<TRIPOS>BOND
     1    1    2 1
     2    1   26 1
     3    1   27 1
     4    1   28 1
     5    2    3 1
     6    2   29 1
     7    2   30 1
     8    3    4 1
     9    3    5 1
    10    3    6 1
    11    5   31 1
    12    5   32 1
    13    5   33 1
    14    6    7 am
    15    6   34 1
    16    7    8 2
    17    7    9 1
    18    9   10 1
    19    9   35 1
    20    9   36 1
    21   10   20 am
    22   10   11 1
    23   11   16 ar
    24   11   12 ar
    25   12   13 ar
    26   12   37 1
    27   13   14 ar
    28   13   38 1
    29   14   15 ar
    30   14   25 1
    31   15   16 ar
    32   15   39 1
    33   16   17 1
    34   17   18 1
    35   18   19 1
    36   18   20 1
    37   18   22 1
    38   20   21 2
    39   22   23 1
    40   22   24 1
    41   22   40 1
    42   23   41 1
    43   23   42 1
    44   23   43 1
    45   24   44 1
    46   24   45 1
    47   24   46 1
    48   25   47 1
    49   25   48 1
@<TRIPOS>MOLECULE
ZINC37905104
   41    42     0     0     0
SMALL
USER_CHARGES

@<TRIPOS>ATOM
      1 C1          0.5654    1.4667    0.3709 C.3       1 <0>        -0.1048
      2 C2          0.4309   -0.0307    0.2668 C.ar      1 <0>        -0.1746
      3 C3          0.3268   -0.6297   -0.9740 C.ar      1 <0>        -0.0511
      4 C4          0.2034   -2.0019   -1.0738 C.ar      1 <0>        -0.2194
      5 C5          0.1834   -2.7848    0.0745 C.ar      1 <0>         0.1964
      6 C6          0.2877   -2.1865    1.3221 C.ar      1 <0>        -0.1817
      7 C7          0.4173   -0.8080    1.4185 C.ar      1 <0>         0.2371
      8 N1          0.5287   -0.2022    2.6721 N.pl3     1 <0>        -0.8753
      9 C8          0.2665   -3.0321    2.5693 C.3       1 <0>        -0.1018
     10 N2          0.0581   -4.1721   -0.0273 N.pl3     1 <0>        -1.0544
     11 S1          0.7798   -4.9789   -1.2805 S.o2      1 <0>         2.7245
     12 O1          0.5560   -6.3639   -1.0543 O.2       1 <0>        -0.9568
     13 O2          0.3694   -4.3259   -2.4739 O.2       1 <0>        -0.9470
     14 C9          2.5166   -4.7192   -1.1359 C.2       1 <0>        -0.8192
     15 C10         3.2420   -3.6691   -1.7080 C.2       1 <0>         0.1739
     16 N3          4.4999   -3.8144   -1.3788 N.2       1 <0>        -0.2938
     17 N4          4.6149   -4.9633   -0.5856 N.pl3     1 <0>        -0.3594
     18 C11         3.3833   -5.4972   -0.4470 C.2       1 <0>         0.2132
     19 C12         3.0359   -6.7393    0.3324 C.3       1 <0>        -0.1181
     20 C13         5.8526   -5.4891   -0.0045 C.3       1 <0>         0.0894
     21 C14         2.6730   -2.5616   -2.5570 C.3       1 <0>        -0.1156
     22 H1          1.6205    1.7391    0.3482 H         1 <0>         0.0646
     23 H2          0.0507    1.9368   -0.4671 H         1 <0>         0.0683
     24 H3          0.1222    1.8071    1.3067 H         1 <0>         0.0572
     25 H4          0.3417   -0.0237   -1.8678 H         1 <0>         0.1300
     26 H5          0.1219   -2.4669   -2.0452 H         1 <0>         0.1628
     27 H6          0.6156    0.7615    2.7391 H         1 <0>         0.3990
     28 H7          0.5192   -0.7454    3.4758 H         1 <0>         0.3970
     29 H8          1.2843   -3.3249    2.8271 H         1 <0>         0.0645
     30 H9         -0.1655   -2.4589    3.3896 H         1 <0>         0.0620
     31 H10        -0.3346   -3.9242    2.3932 H         1 <0>         0.0635
     32 H11        -0.4517   -4.6630    0.6361 H         1 <0>         0.4231
     33 H12         3.1078   -7.6096   -0.3200 H         1 <0>         0.1034
     34 H13         3.7298   -6.8515    1.1655 H         1 <0>         0.0834
     35 H14         2.0189   -6.6554    0.7154 H         1 <0>         0.0999
     36 H15         6.0041   -5.0532    0.9830 H         1 <0>         0.0825
     37 H16         5.7806   -6.5731    0.0840 H         1 <0>         0.0935
     38 H17         6.6940   -5.2322   -0.6480 H         1 <0>         0.0972
     39 H18         2.3806   -1.7280   -1.9185 H         1 <0>         0.0942
     40 H19         3.4265   -2.2264   -3.2698 H         1 <0>         0.0806
     41 H20         1.8004   -2.9293   -3.0968 H         1 <0>         0.1114
@<TRIPOS>BOND
     1    1    2 1
     2    1   22 1
     3    1   23 1
     4    1   24 1
     5    2    7 ar
     6    2    3 ar
     7    3    4 ar
     8    3   25 1
     9    4    5 ar
    10    4   26 1
    11    5    6 ar
    12    5   10 1
    13    6    7 ar
    14    6    9 1
    15    7    8 1
    16    8   27 1
    17    8   28 1
    18    9   29 1
    19    9   30 1
    20    9   31 1
    21   10   11 1
    22   10   32 1
    23   11   12 2
    24   11   13 2
    25   11   14 1
    26   14   18 2
    27   14   15 1
    28   15   16 2
    29   15   21 1
    30   16   17 1
    31   17   18 1
    32   17   20 1
    33   18   19 1
    34   19   33 1
    35   19   34 1
    36   19   35 1
    37   20   36 1
    38   20   37 1
    39   20   38 1
    40   21   39 1
    41   21   40 1
    42   21   41 1
@<TRIPOS>MOLECULE
ZINC45927633
   45    47     0     0     0
SMALL
USER_CHARGES

@<TRIPOS>ATOM
      1 C1         -0.1774    1.5320   -0.1107 C.3       1 <0>        -0.1248
      2 C2         -0.1349    0.0026   -0.1036 C.3       1 <0>        -0.1372
      3 H1         -0.0843   -0.4709   -1.0840 H         1 <0>         0.1069
      4 C3         -0.9226   -0.7209    0.9905 C.3       1 <0>        -0.1648
      5 C4          0.6064   -0.6782    1.0488 C.3       1 <0>        -0.0831
      6 H2          1.0638   -0.0365    1.8019 H         1 <0>         0.1340
      7 C5          1.3502   -1.9523    0.7415 C.2       1 <0>         0.0259
      8 C6          2.6705   -2.1513    0.9049 C.2       1 <0>        -0.2079
      9 C7          2.9384   -3.4780    0.4960 C.2       1 <0>        -0.1731
     10 C8          1.7658   -4.0102    0.1072 C.2       1 <0>        -0.0451
     11 O1          0.8064   -3.0835    0.2636 O.3       1 <0>        -0.1722
     12 C9          1.5622   -5.4108   -0.4106 C.3       1 <0>         0.2015
     13 N1          1.2699   -6.3080    0.7099 N.am      1 <0>        -0.6101
     14 C10        -0.1161   -6.5254    1.1319 C.3       1 <0>         0.0694
     15 C11         2.2760   -6.9336    1.3525 C.2       1 <0>         0.5657
     16 O2          3.4304   -6.6729    1.0739 O.2       1 <0>        -0.5274
     17 C12         1.9764   -7.9350    2.3944 C.ar      1 <0>        -0.1524
     18 C13         0.8631   -8.7697    2.2640 C.ar      1 <0>        -0.0703
     19 C14         0.5868   -9.7031    3.2374 C.ar      1 <0>        -0.1291
     20 C15         1.4144   -9.8160    4.3501 C.ar      1 <0>         0.1881
     21 C16         2.5233   -8.9863    4.4833 C.ar      1 <0>        -0.1544
     22 C17         2.8086   -8.0547    3.5107 C.ar      1 <0>        -0.0405
     23 N2          1.1316  -10.7624    5.3342 N.am      1 <0>        -0.6851
     24 C18        -0.1480  -11.0531    5.6417 C.2       1 <0>         0.7060
     25 O3         -1.0548  -10.5555    5.0028 O.2       1 <0>        -0.5725
     26 N3         -0.4223  -11.8953    6.6575 N.am      1 <0>        -0.8593
     27 H3          0.8390    1.9235   -0.1525 H         1 <0>         0.0630
     28 H4         -0.7353    1.8759   -0.9817 H         1 <0>         0.0651
     29 H5         -0.6662    1.8861    0.7969 H         1 <0>         0.0594
     30 H6         -1.4711   -0.1073    1.7052 H         1 <0>         0.1037
     31 H7         -1.3899   -1.6706    0.7299 H         1 <0>         0.0996
     32 H8          3.3883   -1.4350    1.2765 H         1 <0>         0.1475
     33 H9          3.9000   -3.9695    0.4955 H         1 <0>         0.1515
     34 H10         0.7277   -5.4212   -1.1117 H         1 <0>         0.0967
     35 H11         2.4671   -5.7457   -0.9178 H         1 <0>         0.1164
     36 H12        -0.5613   -7.3137    0.5250 H         1 <0>         0.0649
     37 H13        -0.1344   -6.8204    2.1811 H         1 <0>         0.0836
     38 H14        -0.6837   -5.6037    1.0038 H         1 <0>         0.0726
     39 H15         0.2201   -8.6824    1.4007 H         1 <0>         0.1379
     40 H16        -0.2736  -10.3482    3.1374 H         1 <0>         0.1484
     41 H17         3.1633   -9.0760    5.3486 H         1 <0>         0.1333
     42 H18         3.6723   -7.4142    3.6123 H         1 <0>         0.1365
     43 H19         1.8558  -11.2116    5.7974 H         1 <0>         0.4105
     44 H20         0.3012  -12.2923    7.1673 H         1 <0>         0.4003
     45 H21        -1.3432  -12.1045    6.8789 H         1 <0>         0.4208
@<TRIPOS>BOND
     1    1    2 1
     2    1   27 1
     3    1   28 1
     4    1   29 1
     5    2    3 1
     6    2    5 1
     7    2    4 1
     8    4    5 1
     9    4   30 1
    10    4   31 1
    11    5    6 1
    12    5    7 1
    13    7   11 1
    14    7    8 2
    15    8    9 1
    16    8   32 1
    17    9   10 2
    18    9   33 1
    19   10   11 1
    20   10   12 1
    21   12   13 1
    22   12   34 1
    23   12   35 1
    24   13   14 1
    25   13   15 am
    26   14   36 1
    27   14   37 1
    28   14   38 1
    29   15   16 2
    30   15   17 1
    31   17   22 ar
    32   17   18 ar
    33   18   19 ar
    34   18   39 1
    35   19   20 ar
    36   19   40 1
    37   20   21 ar
    38   20   23 1
    39   21   22 ar
    40   21   41 1
    41   22   42 1
    42   23   24 am
    43   23   43 1
    44   24   25 2
    45   24   26 am
    46   26   44 1
    47   26   45 1
@<TRIPOS>MOLECULE
ZINC59795079
   35    37     0     0     0
SMALL
USER_CHARGES

@<TRIPOS>ATOM
      1 C1         -0.0169    1.3916    0.0097 C.ar      1 <0>        -0.0610
      2 C2          1.1698    2.0947    0.0021 C.ar      1 <0>        -0.1114
      3 C3          2.3782    1.4187   -0.0135 C.ar      1 <0>        -0.0190
      4 C4          2.4034    0.0342   -0.0212 C.ar      1 <0>        -0.1123
      5 C5          1.2233   -0.6799   -0.0137 C.ar      1 <0>        -0.0750
      6 C6          0.0021   -0.0041    0.0020 C.ar      1 <0>        -0.0178
      7 C7         -1.2663   -0.7635    0.0105 C.2       1 <0>         0.2593
      8 N1         -2.4575   -0.2896    0.2926 N.2       1 <0>        -0.2607
      9 N2         -3.3342   -1.2249    0.2033 N.2       1 <0>        -0.2775
     10 C8         -2.7562   -2.3539   -0.1415 C.2       1 <0>         0.1117
     11 N3         -1.4217   -2.0990   -0.2815 N.pl3     1 <0>        -0.2993
     12 N4         -0.4447   -2.9858   -0.6348 N.3       1 <0>        -0.5812
     13 S1         -3.5551   -3.9054   -0.3845 S.3       1 <0>         0.0737
     14 C9         -5.3036   -3.5557   -0.0513 C.3       1 <0>        -0.1407
     15 C10        -6.1102   -4.8166   -0.2262 C.2       1 <0>         0.5407
     16 O1         -5.5598   -5.8494   -0.5442 O.2       1 <0>        -0.5201
     17 N5         -7.4434   -4.7965   -0.0291 N.am      1 <0>        -0.6934
     18 C11        -8.2275   -6.0222   -0.1990 C.3       1 <0>         0.0750
     19 C12        -9.5546   -5.9131   -0.9526 C.3       1 <0>        -0.1899
     20 C13        -9.5505   -6.1258    0.5625 C.3       1 <0>        -0.1858
     21 Cl1         3.8676    2.3105   -0.0241 Cl        1 <0>        -0.0615
     22 H1         -0.9587    1.9199    0.0260 H         1 <0>         0.1463
     23 H2          1.1564    3.1746    0.0081 H         1 <0>         0.1430
     24 H3          3.3489   -0.4876   -0.0334 H         1 <0>         0.1409
     25 H4          1.2441   -1.7597   -0.0205 H         1 <0>         0.1451
     26 H5         -0.0521   -3.4345    0.1791 H         1 <0>         0.3691
     27 H6         -0.7955   -3.6682   -1.2901 H         1 <0>         0.3809
     28 H7         -5.4132   -3.1930    0.9707 H         1 <0>         0.1306
     29 H8         -5.6612   -2.7963   -0.7467 H         1 <0>         0.1308
     30 H9         -7.8836   -3.9704    0.2253 H         1 <0>         0.4069
     31 H10        -7.6485   -6.9366   -0.3286 H         1 <0>         0.1412
     32 H11        -9.8442   -4.9294   -1.3220 H         1 <0>         0.0992
     33 H12        -9.8488   -6.7558   -1.5783 H         1 <0>         0.1056
     34 H13        -9.8420   -7.1084    0.9336 H         1 <0>         0.1069
     35 H14        -9.8374   -5.2820    1.1900 H         1 <0>         0.0997
@<TRIPOS>BOND
     1    1    6 ar
     2    1    2 ar
     3    1   22 1
     4    2    3 ar
     5    2   23 1
     6    3    4 ar
     7    3   21 1
     8    4    5 ar
     9    4   24 1
    10    5    6 ar
    11    5   25 1
    12    6    7 1
    13    7   11 1
    14    7    8 2
    15    8    9 1
    16    9   10 2
    17   10   11 1
    18   10   13 1
    19   11   12 1
    20   12   26 1
    21   12   27 1
    22   13   14 1
    23   14   15 1
    24   14   28 1
    25   14   29 1
    26   15   16 2
    27   15   17 am
    28   17   18 1
    29   17   30 1
    30   18   20 1
    31   18   19 1
    32   18   31 1
    33   19   20 1
    34   19   32 1
    35   19   33 1
    36   20   34 1
    37   20   35 1
@<TRIPOS>MOLECULE
ZINC67266602
   50    52     0     0     0
SMALL
USER_CHARGES

@<TRIPOS>ATOM
      1 C1         -0.0188    1.5345    0.0105 C.3       1 <0>        -0.1271
      2 C2          1.4534    1.9953   -0.0011 C.3       1 <0>        -0.1266
      3 C3          2.2325    0.7924    0.5864 C.3       1 <0>        -0.1222
      4 C4          1.4862   -0.4246   -0.0144 C.3       1 <0>        -0.0921
      5 C5          0.0021   -0.0041    0.0020 C.3       1 <0>        -0.1211
      6 C6          1.7006   -1.6661    0.8536 C.3       1 <0>        -0.1095
      7 C7          1.0598   -2.8790    0.1760 C.3       1 <0>        -0.1309
      8 C8          1.2742   -4.1206    1.0441 C.3       1 <0>         0.1168
      9 N1          0.6606   -5.2819    0.3953 N.am      1 <0>        -0.7325
     10 C9          0.7247   -6.4936    0.9819 C.2       1 <0>         0.5178
     11 O1          1.2904   -6.6225    2.0470 O.2       1 <0>        -0.5325
     12 C10         0.0935   -7.6883    0.3145 C.3       1 <0>        -0.1042
     13 C11        -1.4062   -7.4410    0.1387 C.3       1 <0>        -0.1191
     14 C12        -2.0440   -8.6499   -0.5504 C.3       1 <0>        -0.1101
     15 C13        -1.8134   -9.8993    0.2925 C.3       1 <0>         0.1206
     16 C14        -0.3227  -10.1449    0.4979 C.3       1 <0>        -0.1125
     17 C15         0.3080   -8.9299    1.1827 C.3       1 <0>        -0.1085
     18 C16        -2.5165   -9.7748    1.6245 C.2       1 <0>         0.5313
     19 O2         -2.3179   -8.9434    2.4842 O.2       1 <0>        -0.4494
     20 N2         -3.4116  -10.7838    1.6554 N.am      1 <0>        -0.6816
     21 C17        -3.3669  -11.5169    0.5363 C.2       1 <0>         0.7042
     22 O3         -4.0785  -12.4805    0.3305 O.2       1 <0>        -0.5398
     23 N3         -2.4448  -11.0669   -0.3361 N.am      1 <0>        -0.7185
     24 H1         -0.5162    1.8962    0.9104 H         1 <0>         0.0622
     25 H2         -0.5332    1.9058   -0.8758 H         1 <0>         0.0614
     26 H3          1.7808    2.2008   -1.0203 H         1 <0>         0.0643
     27 H4          1.5822    2.8767    0.6270 H         1 <0>         0.0642
     28 H5          3.2720    0.8083    0.2589 H         1 <0>         0.0654
     29 H6          2.1693    0.7856    1.6746 H         1 <0>         0.0680
     30 H7          1.8189   -0.6099   -1.0357 H         1 <0>         0.0742
     31 H8         -0.4852   -0.3890    0.8978 H         1 <0>         0.0644
     32 H9         -0.5022   -0.3794   -0.8884 H         1 <0>         0.0610
     33 H10         2.7691   -1.8421    0.9785 H         1 <0>         0.0664
     34 H11         1.2415   -1.5106    1.8299 H         1 <0>         0.0671
     35 H12        -0.0086   -2.7031    0.0512 H         1 <0>         0.0701
     36 H13         1.5190   -3.0345   -0.8002 H         1 <0>         0.0686
     37 H14         2.3427   -4.2965    1.1689 H         1 <0>         0.0673
     38 H15         0.8151   -3.9651    2.0203 H         1 <0>         0.0675
     39 H16         0.2082   -5.1789   -0.4566 H         1 <0>         0.3996
     40 H17         0.5529   -7.8439   -0.6616 H         1 <0>         0.1002
     41 H18        -1.8673   -7.2941    1.1154 H         1 <0>         0.0886
     42 H19        -1.5587   -6.5517   -0.4728 H         1 <0>         0.0783
     43 H20        -3.1149   -8.4805   -0.6628 H         1 <0>         0.0802
     44 H21        -1.5934   -8.7869   -1.5334 H         1 <0>         0.0909
     45 H22        -0.1829  -11.0270    1.1228 H         1 <0>         0.0800
     46 H23         0.1552  -10.3057   -0.4685 H         1 <0>         0.0890
     47 H24         1.3764   -9.1010    1.3147 H         1 <0>         0.0826
     48 H25        -0.1589   -8.7780    2.1559 H         1 <0>         0.0904
     49 H26        -4.0127  -10.9568    2.3968 H         1 <0>         0.4337
     50 H27        -2.2386  -11.4400   -1.2074 H         1 <0>         0.4419
@<TRIPOS>BOND
     1    1    5 1
     2    1    2 1
     3    1   24 1
     4    1   25 1
     5    2    3 1
     6    2   26 1
     7    2   27 1
     8    3    4 1
     9    3   28 1
    10    3   29 1
    11    4    5 1
    12    4    6 1
    13    4   30 1
    14    5   31 1
    15    5   32 1
    16    6    7 1
    17    6   33 1
    18    6   34 1
    19    7    8 1
    20    7   35 1
    21    7   36 1
    22    8    9 1
    23    8   37 1
    24    8   38 1
    25    9   10 am
    26    9   39 1
    27   10   11 2
    28   10   12 1
    29   12   17 1
    30   12   13 1
    31   12   40 1
    32   13   14 1
    33   13   41 1
    34   13   42 1
    35   14   15 1
    36   14   43 1
    37   14   44 1
    38   15   23 1
    39   15   16 1
    40   15   18 1
    41   16   17 1
    42   16   45 1
    43   16   46 1
    44   17   47 1
    45   17   48 1
    46   18   19 2
    47   18   20 am
    48   20   21 am
    49   20   49 1
    50   21   22 2
    51   21   23 am
    52   23   50 1
@<TRIPOS>MOLECULE
ZINC03846515
   50    54     0     0     0
SMALL
USER_CHARGES

@<TRIPOS>ATOM
      1 C1         -0.0178    1.4608    0.0101 C.3       1 <0>         0.0724
      2 N1          0.0021   -0.0041    0.0020 N.pl3     1 <0>        -0.5243
      3 C2         -1.1943   -0.6914    0.0041 C.ar      1 <0>         0.2086
      4 C3         -2.4063   -0.0072    0.0132 C.ar      1 <0>        -0.1875
      5 C4         -3.5918   -0.7092    0.0148 C.ar      1 <0>        -0.0735
      6 C5         -3.5928   -2.0970    0.0077 C.ar      1 <0>        -0.1800
      7 C6         -2.4051   -2.7936   -0.0014 C.ar      1 <0>        -0.0348
      8 C7         -1.1961   -2.0962   -0.0035 C.ar      1 <0>        -0.1876
      9 C8          0.0935   -2.8090   -0.0132 C.2       1 <0>         0.4248
     10 O1          0.1383   -4.0285   -0.0204 O.2       1 <0>        -0.5208
     11 C9          1.2818   -2.0329   -0.0143 C.2       1 <0>        -0.4022
     12 C10         2.5976   -2.6930   -0.0238 C.2       1 <0>         0.2228
     13 C11         3.9313   -1.9806   -0.0199 C.3       1 <0>        -0.0928
     14 C12         4.9638   -3.1251   -0.0334 C.3       1 <0>         0.1397
     15 H1          5.5804   -3.0747   -0.9309 H         1 <0>         0.0796
     16 N2          4.1334   -4.3398   -0.0434 N.pl3     1 <0>        -0.4746
     17 N3          2.7906   -3.9679   -0.0311 N.2       1 <0>        -0.2800
     18 C13         4.6121   -5.6495   -0.0581 C.ar      1 <0>         0.2598
     19 C14         5.9812   -5.8910   -0.0586 C.ar      1 <0>        -0.1978
     20 C15         6.4514   -7.1891   -0.0732 C.ar      1 <0>        -0.0795
     21 C16         5.5622   -8.2485   -0.0877 C.ar      1 <0>        -0.1914
     22 C17         4.1995   -8.0122   -0.0871 C.ar      1 <0>        -0.0819
     23 C18         3.7216   -6.7169   -0.0664 C.ar      1 <0>        -0.1705
     24 C19         5.8245   -3.0774    1.2027 C.ar      1 <0>        -0.0788
     25 C20         5.3506   -3.5916    2.3951 C.ar      1 <0>        -0.0905
     26 C21         6.1401   -3.5479    3.5290 C.ar      1 <0>        -0.1196
     27 C22         7.4036   -2.9903    3.4703 C.ar      1 <0>        -0.1254
     28 C23         7.8779   -2.4769    2.2777 C.ar      1 <0>        -0.1227
     29 C24         7.0901   -2.5245    1.1428 C.ar      1 <0>        -0.1140
     30 C25         1.1954   -0.6471   -0.0128 C.2       1 <0>         0.5138
     31 O2          2.3319    0.0804   -0.0202 O.3       1 <0>        -0.6699
     32 H2          1.0048    1.8381    0.0023 H         1 <0>         0.1007
     33 H3         -0.5450    1.8219   -0.8730 H         1 <0>         0.0578
     34 H4         -0.5280    1.8123    0.9069 H         1 <0>         0.0579
     35 H5         -2.4174    1.0727    0.0195 H         1 <0>         0.1241
     36 H6         -4.5298   -0.1740    0.0219 H         1 <0>         0.1195
     37 H7         -4.5301   -2.6335    0.0098 H         1 <0>         0.1187
     38 H8         -2.4090   -3.8736   -0.0065 H         1 <0>         0.1307
     39 H9          4.0361   -1.3605   -0.9102 H         1 <0>         0.0955
     40 H10         4.0402   -1.3781    0.8819 H         1 <0>         0.0955
     41 H11         6.6761   -5.0643   -0.0481 H         1 <0>         0.1147
     42 H12         7.5148   -7.3775   -0.0737 H         1 <0>         0.1128
     43 H13         5.9330   -9.2627   -0.0998 H         1 <0>         0.1098
     44 H14         3.5082   -8.8419   -0.0988 H         1 <0>         0.1150
     45 H15         2.6573   -6.5333   -0.0611 H         1 <0>         0.1326
     46 H16         4.3634   -4.0273    2.4409 H         1 <0>         0.1198
     47 H17         5.7696   -3.9490    4.4608 H         1 <0>         0.1179
     48 H18         8.0202   -2.9555    4.3564 H         1 <0>         0.1170
     49 H19         8.8649   -2.0410    2.2320 H         1 <0>         0.1187
     50 H20         7.4620   -2.1267    0.2102 H         1 <0>         0.1200
@<TRIPOS>BOND
     1    1    2 1
     2    1   32 1
     3    1   33 1
     4    1   34 1
     5    2   30 1
     6    2    3 1
     7    3    8 ar
     8    3    4 ar
     9    4    5 ar
    10    4   35 1
    11    5    6 ar
    12    5   36 1
    13    6    7 ar
    14    6   37 1
    15    7    8 ar
    16    7   38 1
    17    8    9 1
    18    9   10 2
    19    9   11 1
    20   11   12 1
    21   11   30 2
    22   12   17 2
    23   12   13 1
    24   13   14 1
    25   13   39 1
    26   13   40 1
    27   14   15 1
    28   14   16 1
    29   14   24 1
    30   16   17 1
    31   16   18 1
    32   18   23 ar
    33   18   19 ar
    34   19   20 ar
    35   19   41 1
    36   20   21 ar
    37   20   42 1
    38   21   22 ar
    39   21   43 1
    40   22   23 ar
    41   22   44 1
    42   23   45 1
    43   24   29 ar
    44   24   25 ar
    45   25   26 ar
    46   25   46 1
    47   26   27 ar
    48   26   47 1
    49   27   28 ar
    50   27   48 1
    51   28   29 ar
    52   28   49 1
    53   29   50 1
    54   30   31 1
@<TRIPOS>MOLECULE
ZINC38718540
   38    41     0     0     0
SMALL
USER_CHARGES

@<TRIPOS>ATOM
      1 C1         -0.0168    1.3898    0.0097 C.ar      1 <0>        -0.0422
      2 C2          1.1684    2.0944    0.0021 C.ar      1 <0>        -0.1828
      3 C3          2.3813    1.4159   -0.0135 C.ar      1 <0>         0.2882
      4 C4          2.4026    0.0263   -0.0217 C.ar      1 <0>        -0.2650
      5 C5          1.2198   -0.6825   -0.0137 C.ar      1 <0>        -0.0432
      6 C6          0.0021   -0.0041    0.0020 C.ar      1 <0>        -0.1289
      7 C7         -1.2718   -0.7644    0.0106 C.2       1 <0>         0.1055
      8 C8         -1.3943   -2.1107    0.0100 C.2       1 <0>        -0.0400
      9 N1         -2.7545   -2.4080    0.0330 N.pl3     1 <0>        -0.5089
     10 C9         -3.3905   -1.2017    0.0170 C.2       1 <0>         0.2029
     11 N2         -2.5182   -0.2316    0.0263 N.2       1 <0>        -0.4394
     12 S1         -5.1350   -1.5585   -0.0179 S.3       1 <0>        -0.0457
     13 C10        -5.0245   -3.3557   -0.4075 C.3       1 <0>        -0.1008
     14 C11        -3.5800   -3.6195    0.0802 C.3       1 <0>         0.0965
     15 N3          3.5809    2.1318   -0.0216 N.2       1 <0>        -1.0834
     16 S2          5.0268    1.3247   -0.0403 S.o2      1 <0>         2.6004
     17 O1          5.1252    0.6391    1.2005 O.2       1 <0>        -1.0225
     18 O2          5.1005    0.6525   -1.2901 O.2       1 <0>        -1.0227
     19 C12         6.3021    2.5405   -0.0464 C.ar      1 <0>        -0.6155
     20 C13         6.7861    3.0277   -1.2465 C.ar      1 <0>         0.0096
     21 C14         7.7860    3.9816   -1.2532 C.ar      1 <0>        -0.1662
     22 C15         8.3036    4.4499   -0.0576 C.ar      1 <0>         0.1441
     23 C16         7.8182    3.9614    1.1446 C.ar      1 <0>        -0.0978
     24 C17         6.8137    3.0105    1.1484 C.ar      1 <0>         0.0148
     25 Cl1         8.4657    4.5471    2.6451 Cl        1 <0>        -0.0517
     26 F1          9.2814    5.3822   -0.0632 F         1 <0>        -0.1256
     27 H1         -0.9590    1.9174    0.0260 H         1 <0>         0.1158
     28 H2          1.1543    3.1743    0.0081 H         1 <0>         0.1161
     29 H3          3.3462   -0.4989   -0.0346 H         1 <0>         0.1001
     30 H4          1.2368   -1.7623   -0.0204 H         1 <0>         0.1032
     31 H5         -0.5848   -2.8254   -0.0060 H         1 <0>         0.1751
     32 H6         -5.7508   -3.9337    0.1639 H         1 <0>         0.1371
     33 H7         -5.1247   -3.5394   -1.4772 H         1 <0>         0.1120
     34 H8         -3.1261   -4.3827   -0.5519 H         1 <0>         0.1010
     35 H9         -3.6135   -3.9860    1.1062 H         1 <0>         0.0967
     36 H10         6.3827    2.6622   -2.1793 H         1 <0>         0.1550
     37 H11         8.1638    4.3614   -2.1910 H         1 <0>         0.1505
     38 H12         6.4317    2.6324    2.0852 H         1 <0>         0.1577
@<TRIPOS>BOND
     1    1    6 ar
     2    1    2 ar
     3    1   27 1
     4    2    3 ar
     5    2   28 1
     6    3    4 ar
     7    3   15 1
     8    4    5 ar
     9    4   29 1
    10    5    6 ar
    11    5   30 1
    12    6    7 1
    13    7   11 1
    14    7    8 2
    15    8    9 1
    16    8   31 1
    17    9   14 1
    18    9   10 1
    19   10   11 2
    20   10   12 1
    21   12   13 1
    22   13   14 1
    23   13   32 1
    24   13   33 1
    25   14   34 1
    26   14   35 1
    27   15   16 1
    28   16   17 2
    29   16   18 2
    30   16   19 1
    31   19   24 ar
    32   19   20 ar
    33   20   21 ar
    34   20   36 1
    35   21   22 ar
    36   21   37 1
    37   22   23 ar
    38   22   26 1
    39   23   24 ar
    40   23   25 1
    41   24   38 1
@<TRIPOS>MOLECULE
ZINC40475345
   43    47     0     0     0
SMALL
USER_CHARGES

@<TRIPOS>ATOM
      1 C1          0.2869    1.5148    0.0621 C.3       1 <0>        -0.1128
      2 C2          0.2587    0.0082    0.0449 C.ar      1 <0>        -0.0975
      3 C3          0.2525   -0.6681   -1.1612 C.ar      1 <0>        -0.1013
      4 C4          0.2267   -2.0489   -1.1802 C.ar      1 <0>        -0.1367
      5 C5          0.2074   -2.7579    0.0133 C.ar      1 <0>         0.1185
      6 C6          0.2141   -2.0761    1.2226 C.ar      1 <0>        -0.1338
      7 C7          0.2448   -0.6953    1.2352 C.ar      1 <0>        -0.1006
      8 N1          0.1807   -4.1595   -0.0027 N.am      1 <0>        -0.5205
      9 C8          0.1555   -4.9111    1.1234 C.2       1 <0>         0.5489
     10 O1          0.3131   -4.5261    2.2620 O.2       1 <0>        -0.4251
     11 C9         -0.1064   -6.3144    0.6744 C.3       1 <0>        -0.1123
     12 H1         -1.1873   -6.3617    0.5416 H         1 <0>         0.1251
     13 C10         0.2264   -7.4397    1.5794 C.3       1 <0>         0.0791
     14 H2         -0.4440   -8.2692    1.3544 H         1 <0>         0.1052
     15 C11         1.6220   -7.9341    1.4966 C.2       1 <0>        -0.2909
     16 C12         2.5742   -7.6482    0.5673 C.2       1 <0>         0.1118
     17 N2          3.7334   -8.2894    0.7386 N.2       1 <0>        -0.5581
     18 C13         3.9347   -9.1045    1.7504 C.2       1 <0>         0.2825
     19 S1          5.3848  -10.0254    2.1423 S.3       1 <0>        -0.7180
     20 S2          2.4708   -9.0544    2.5811 S.3       1 <0>         0.0662
     21 S3          2.2591   -6.4893   -0.7372 S.3       1 <0>        -0.0129
     22 C14         0.4561   -6.3453   -0.7518 C.3       1 <0>        -0.1163
     23 H3         -0.0250   -7.0845   -1.3923 H         1 <0>         0.1607
     24 C15         0.1718   -4.8823   -1.1406 C.2       1 <0>         0.5537
     25 O2         -0.0210   -4.4589   -2.2600 O.2       1 <0>        -0.4439
     26 C16        -0.0313   -6.9983    2.9971 C.ar      1 <0>        -0.0923
     27 C17         0.9926   -6.4497    3.7466 C.ar      1 <0>        -0.0243
     28 C18         0.7573   -6.0441    5.0466 C.ar      1 <0>        -0.1500
     29 C19        -0.5046   -6.1873    5.5983 C.ar      1 <0>         0.0998
     30 C20        -1.5293   -6.7368    4.8466 C.ar      1 <0>        -0.1606
     31 C21        -1.2930   -7.1369    3.5451 C.ar      1 <0>        -0.0850
     32 F1         -0.7357   -5.7915    6.8692 F         1 <0>        -0.1451
     33 H4          1.3212    1.8588    0.0668 H         1 <0>         0.0705
     34 H5         -0.2193    1.8979   -0.8240 H         1 <0>         0.0658
     35 H6         -0.2207    1.8776    0.9558 H         1 <0>         0.0658
     36 H7          0.2676   -0.1160   -2.0893 H         1 <0>         0.1284
     37 H8          0.2212   -2.5766   -2.1225 H         1 <0>         0.1533
     38 H9          0.1988   -2.6250    2.1526 H         1 <0>         0.1554
     39 H10         0.2539   -0.1645    2.1757 H         1 <0>         0.1284
     40 H11         1.9768   -6.3385    3.3163 H         1 <0>         0.1280
     41 H12         1.5574   -5.6159    5.6321 H         1 <0>         0.1315
     42 H13        -2.5139   -6.8493    5.2760 H         1 <0>         0.1306
     43 H14        -2.0932   -7.5614    2.9570 H         1 <0>         0.1287
@<TRIPOS>BOND
     1    1    2 1
     2    1   33 1
     3    1   34 1
     4    1   35 1
     5    2    7 ar
     6    2    3 ar
     7    3    4 ar
     8    3   36 1
     9    4    5 ar
    10    4   37 1
    11    5    6 ar
    12    5    8 1
    13    6    7 ar
    14    6   38 1
    15    7   39 1
    16    8   24 am
    17    8    9 am
    18    9   10 2
    19    9   11 1
    20   11   12 1
    21   11   22 1
    22   11   13 1
    23   13   14 1
    24   13   15 1
    25   13   26 1
    26   15   20 1
    27   15   16 2
    28   16   17 1
    29   16   21 1
    30   17   18 2
    31   18   19 1
    32   18   20 1
    33   21   22 1
    34   22   23 1
    35   22   24 1
    36   24   25 2
    37   26   31 ar
    38   26   27 ar
    39   27   28 ar
    40   27   40 1
    41   28   29 ar
    42   28   41 1
    43   29   30 ar
    44   29   32 1
    45   30   31 ar
    46   30   42 1
    47   31   43 1
@<TRIPOS>MOLECULE
ZINC39729768
   46    49     0     0     0
SMALL
USER_CHARGES

@<TRIPOS>ATOM
      1 C1         -0.0187    1.5258    0.0104 C.3       1 <0>        -0.1377
      2 C2          0.0021   -0.0041    0.0020 C.3       1 <0>        -0.0573
      3 C3         -1.4328   -0.5375    0.0333 C.3       1 <0>        -0.0734
      4 C4         -1.4003   -2.0457    0.0813 C.2       1 <0>         0.3062
      5 C5         -0.3463   -2.7014    0.7269 C.2       1 <0>        -0.3849
      6 C6         -0.3498   -4.2129    0.8209 C.3       1 <0>         0.0656
      7 H1          0.6756   -4.5809    0.8569 H         1 <0>         0.1034
      8 C7         -1.0524   -4.7699   -0.4129 C.3       1 <0>        -0.2170
      9 H2         -0.4165   -4.5864   -1.2789 H         1 <0>         0.1177
     10 C8         -2.3526   -4.0433   -0.6225 C.2       1 <0>         0.4923
     11 N1         -3.4529   -4.7068   -0.9107 N.2       1 <0>        -0.6135
     12 C9         -3.4939   -6.0389   -0.9237 C.2       1 <0>         0.4344
     13 N2         -2.4472   -6.7854   -0.5926 N.2       1 <0>        -0.6811
     14 C10        -1.2837   -6.2441   -0.3059 C.2       1 <0>         0.5241
     15 O1         -0.3723   -6.9684    0.0457 O.2       1 <0>        -0.5052
     16 S1         -4.9913   -6.8379   -1.3970 S.3       1 <0>        -0.0080
     17 C11        -4.6031   -8.6057   -1.2745 C.3       1 <0>        -0.1392
     18 N3         -2.3967   -2.7257   -0.4527 N.2       1 <0>        -0.6069
     19 C12        -1.0870   -4.6425    2.0631 C.ar      1 <0>        -0.0526
     20 C13        -2.4164   -4.3021    2.2300 C.ar      1 <0>        -0.1114
     21 C14        -3.0931   -4.6957    3.3690 C.ar      1 <0>        -0.1111
     22 C15        -2.4398   -5.4307    4.3422 C.ar      1 <0>        -0.0405
     23 C16        -1.1093   -5.7711    4.1746 C.ar      1 <0>        -0.1142
     24 C17        -0.4353   -5.3817    3.0325 C.ar      1 <0>        -0.0814
     25 Cl1        -3.2889   -5.9250    5.7734 Cl        1 <0>        -0.0876
     26 C18         0.6816   -2.0166    1.2779 C.2       1 <0>         0.3514
     27 O2          1.6769   -2.6976    1.8747 O.3       1 <0>        -0.6046
     28 C19         0.7421   -0.5146    1.2415 C.3       1 <0>        -0.1243
     29 C20         0.7106   -0.5009   -1.2598 C.3       1 <0>        -0.1468
     30 H3          1.0039    1.9031    0.0027 H         1 <0>         0.0578
     31 H4         -0.5459    1.8868   -0.8726 H         1 <0>         0.0585
     32 H5         -0.5289    1.8773    0.9072 H         1 <0>         0.0571
     33 H6         -1.9441   -0.1558    0.9171 H         1 <0>         0.0918
     34 H7         -1.9616   -0.2129   -0.8629 H         1 <0>         0.0898
     35 H8         -3.7797   -8.8443   -1.9477 H         1 <0>         0.0878
     36 H9         -4.3161   -8.8445   -0.2505 H         1 <0>         0.0896
     37 H10        -5.4802   -9.1903   -1.5518 H         1 <0>         0.1034
     38 H11        -2.9263   -3.7280    1.4704 H         1 <0>         0.1359
     39 H12        -4.1316   -4.4294    3.4995 H         1 <0>         0.1267
     40 H13        -0.5987   -6.3445    4.9341 H         1 <0>         0.1280
     41 H14         0.6020   -5.6514    2.8994 H         1 <0>         0.1308
     42 H15         1.7830   -0.1938    1.2011 H         1 <0>         0.0839
     43 H16         0.2718   -0.1102    2.1378 H         1 <0>         0.0888
     44 H17         1.7335   -0.1247   -1.2740 H         1 <0>         0.0558
     45 H18         0.7242   -1.5908   -1.2636 H         1 <0>         0.0617
     46 H19         0.1788   -0.1410   -2.1406 H         1 <0>         0.0562
@<TRIPOS>BOND
     1    1    2 1
     2    1   30 1
     3    1   31 1
     4    1   32 1
     5    2   28 1
     6    2    3 1
     7    2   29 1
     8    3    4 1
     9    3   33 1
    10    3   34 1
    11    4   18 2
    12    4    5 1
    13    5    6 1
    14    5   26 2
    15    6    7 1
    16    6    8 1
    17    6   19 1
    18    8    9 1
    19    8   14 1
    20    8   10 1
    21   10   11 2
    22   10   18 1
    23   11   12 1
    24   12   13 2
    25   12   16 1
    26   13   14 1
    27   14   15 2
    28   16   17 1
    29   17   35 1
    30   17   36 1
    31   17   37 1
    32   19   24 ar
    33   19   20 ar
    34   20   21 ar
    35   20   38 1
    36   21   22 ar
    37   21   39 1
    38   22   23 ar
    39   22   25 1
    40   23   24 ar
    41   23   40 1
    42   24   41 1
    43   26   27 1
    44   26   28 1
    45   28   42 1
    46   28   43 1
    47   29   44 1
    48   29   45 1
    49   29   46 1
@<TRIPOS>MOLECULE
ZINC64668362
   42    44     0     0     0
SMALL
USER_CHARGES

@<TRIPOS>ATOM
      1 C1         -0.0184    1.5028    0.0103 C.3       1 <0>        -0.0795
      2 C2          0.0021   -0.0041    0.0020 C.2       1 <0>         0.0570
      3 C3          0.0052   -0.6778   -1.1780 C.2       1 <0>        -0.1970
      4 S1          0.0319   -2.3681   -0.5943 S.3       1 <0>         0.0376
      5 C4          0.0359   -1.9950    1.1543 C.2       1 <0>         0.1968
      6 N1          0.0223   -0.6673    1.1349 N.2       1 <0>        -0.5173
      7 C5          0.0547   -2.9123    2.3052 C.2       1 <0>         0.0463
      8 C6          0.0794   -4.2762    2.2464 C.2       1 <0>        -0.0512
      9 C7          0.0914   -4.7509    3.5665 C.2       1 <0>        -0.6873
     10 C8          0.0739   -3.6794    4.3898 C.2       1 <0>         0.1751
     11 N2          0.0567   -2.5489    3.6295 N.pl3     1 <0>        -0.4234
     12 C9          0.0395   -1.1756    4.1394 C.3       1 <0>         0.0672
     13 C10         0.0786   -3.7268    5.8961 C.3       1 <0>        -0.1132
     14 S2          0.1225   -6.4415    4.0623 S.o2      1 <0>         2.6336
     15 O1         -0.8982   -6.5972    5.0386 O.2       1 <0>        -1.0326
     16 O2          0.1605   -7.2137    2.8700 O.2       1 <0>        -1.0316
     17 N3          1.5628   -6.6977    4.8382 N.2       1 <0>        -1.0893
     18 C11         1.8669   -7.9627    5.3463 C.ar      1 <0>         0.2871
     19 C12         0.9645   -9.0085    5.1965 C.ar      1 <0>        -0.2527
     20 C13         1.2678  -10.2581    5.6998 C.ar      1 <0>        -0.0601
     21 C14         2.4682  -10.4697    6.3531 C.ar      1 <0>        -0.2031
     22 C15         3.3694   -9.4308    6.5043 C.ar      1 <0>        -0.0380
     23 C16         3.0743   -8.1792    5.9973 C.ar      1 <0>        -0.1561
     24 Br1         5.0094   -9.7253    7.3984 Br        1 <0>        -0.0926
     25 C17        -0.0100   -0.1474   -2.5885 C.3       1 <0>        -0.0577
     26 H1          1.0042    1.8801    0.0026 H         1 <0>         0.0718
     27 H2         -0.5455    1.8639   -0.8728 H         1 <0>         0.0719
     28 H3         -0.5286    1.8543    0.9071 H         1 <0>         0.0711
     29 H4          0.0881   -4.8781    1.3498 H         1 <0>         0.1551
     30 H5         -0.9923   -0.8501    4.2719 H         1 <0>         0.0735
     31 H6          0.5584   -1.1371    5.0972 H         1 <0>         0.0849
     32 H7          0.5396   -0.5178    3.4285 H         1 <0>         0.1003
     33 H8          1.1072   -3.7191    6.2566 H         1 <0>         0.0945
     34 H9         -0.4505   -2.8584    6.2886 H         1 <0>         0.0701
     35 H10        -0.4175   -4.6372    6.2325 H         1 <0>         0.1095
     36 H11         0.0265   -8.8442    4.6871 H         1 <0>         0.1025
     37 H12         0.5665  -11.0712    5.5835 H         1 <0>         0.1110
     38 H13         2.7026  -11.4478    6.7464 H         1 <0>         0.1112
     39 H14         3.7800   -7.3696    6.1112 H         1 <0>         0.1217
     40 H15         1.0139   -0.0049   -2.9342 H         1 <0>         0.0779
     41 H16        -0.5173   -0.8598   -3.2391 H         1 <0>         0.0733
     42 H17        -0.5376    0.8061   -2.6124 H         1 <0>         0.0817
@<TRIPOS>BOND
     1    1    2 1
     2    1   26 1
     3    1   27 1
     4    1   28 1
     5    2    6 1
     6    2    3 2
     7    3    4 1
     8    3   25 1
     9    4    5 1
    10    5    6 2
    11    5    7 1
    12    7   11 1
    13    7    8 2
    14    8    9 1
    15    8   29 1
    16    9   10 2
    17    9   14 1
    18   10   11 1
    19   10   13 1
    20   11   12 1
    21   12   30 1
    22   12   31 1
    23   12   32 1
    24   13   33 1
    25   13   34 1
    26   13   35 1
    27   14   15 2
    28   14   16 2
    29   14   17 1
    30   17   18 1
    31   18   23 ar
    32   18   19 ar
    33   19   20 ar
    34   19   36 1
    35   20   21 ar
    36   20   37 1
    37   21   22 ar
    38   21   38 1
    39   22   23 ar
    40   22   24 1
    41   23   39 1
    42   25   40 1
    43   25   41 1
    44   25   42 1
@<TRIPOS>MOLECULE
ZINC13278852
   35    36     0     0     0
SMALL
USER_CHARGES
4-[(5-carboxy-2-chloro-phenyl)sulfonylamino]-3-methylsulfanyl-benzoic acid
@<TRIPOS>ATOM
      1 C1         -4.1369    4.4752    3.4323 C.3       1 <0>        -0.1369
      2 S1         -2.6217    3.8973    2.6195 S.3       1 <0>        -0.1411
      3 C2         -2.8365    2.1519    2.5087 C.ar      1 <0>        -0.1237
      4 C3         -3.9895    1.5645    2.9952 C.ar      1 <0>        -0.0697
      5 C4         -4.1532    0.1782    2.9104 C.ar      1 <0>        -0.1144
      6 C5         -3.1532   -0.6074    2.3294 C.ar      1 <0>        -0.0338
      7 C6         -2.0082   -0.0171    1.8417 C.ar      1 <0>        -0.1705
      8 C7         -1.8429    1.3603    1.9247 C.ar      1 <0>         0.1859
      9 N1         -0.6830    1.9525    1.4304 N.pl3     1 <0>        -1.0420
     10 S2          0.0445    1.3427    0.0735 S.o2      1 <0>         2.6924
     11 O1          1.1652    2.1741   -0.1949 O.2       1 <0>        -0.9468
     12 O2         -0.9881    1.1253   -0.8781 O.2       1 <0>        -0.9354
     13 C8          0.6841   -0.2444    0.4940 C.ar      1 <0>        -0.6880
     14 C9          0.1940   -1.3715   -0.1314 C.ar      1 <0>         0.0217
     15 C10         0.7023   -2.6285    0.2027 C.ar      1 <0>        -0.1216
     16 C11         1.7051   -2.7358    1.1692 C.ar      1 <0>        -0.0118
     17 C12         2.1868   -1.6015    1.7872 C.ar      1 <0>        -0.1413
     18 C13         1.6821   -0.3567    1.4477 C.ar      1 <0>         0.0512
     19 Cl1         2.2986    1.0675    2.2257 Cl        1 <0>        -0.0640
     20 C14         0.1823   -3.8394   -0.4635 C.2       1 <0>         0.4915
     21 O3         -0.6896   -3.7433   -1.3040 O.co2     1 <0>        -0.6151
     22 C15        -5.3783   -0.4535    3.4322 C.2       1 <0>         0.4937
     23 O4         -6.2469    0.2302    3.9370 O.co2     1 <0>        -0.6388
     24 H1         -5.0007    4.2055    2.8247 H         1 <0>         0.0856
     25 H2         -4.2233    4.0090    4.4138 H         1 <0>         0.0843
     26 H3         -4.0973    5.5585    3.5469 H         1 <0>         0.1018
     27 H4         -4.7599    2.1742    3.4437 H         1 <0>         0.1336
     28 H5         -3.2785   -1.6781    2.2634 H         1 <0>         0.1443
     29 H6         -1.2369   -0.6262    1.3940 H         1 <0>         0.1324
     30 H7         -0.3015    2.7221    1.8810 H         1 <0>         0.4228
     31 H8         -0.5811   -1.2822   -0.8781 H         1 <0>         0.1608
     32 H9          2.1020   -3.7052    1.4320 H         1 <0>         0.1502
     33 H10         2.9621   -1.6831    2.5347 H         1 <0>         0.1386
     34 O5          0.6746   -5.0507   -0.1392 O.co2     1 <0>        -0.7496
     35 O6         -5.5353   -1.7895    3.3496 O.co2     1 <0>        -0.7464
@<TRIPOS>BOND
     1    1    2 1
     2    1   24 1
     3    1   25 1
     4    1   26 1
     5    2    3 1
     6    3    8 ar
     7    3    4 ar
     8    4    5 ar
     9    4   27 1
    10    5    6 ar
    11    5   22 1
    12    6    7 ar
    13    6   28 1
    14    7    8 ar
    15    7   29 1
    16    8    9 1
    17    9   10 1
    18    9   30 1
    19   10   11 2
    20   10   12 2
    21   10   13 1
    22   13   18 ar
    23   13   14 ar
    24   14   15 ar
    25   14   31 1
    26   15   16 ar
    27   15   20 1
    28   16   17 ar
    29   16   32 1
    30   17   18 ar
    31   17   33 1
    32   18   19 1
    33   20   21 2
    34   20   34 1
    35   22   23 2
    36   22   35 1
@<TRIPOS>MOLECULE
ZINC20562319
   29    30     0     0     0
SMALL
USER_CHARGES
4-[(2,6-dichloro-3-methyl-phenyl)sulfamoyl]-1H-pyrrole-2-carboxylic acid
@<TRIPOS>ATOM
      1 C1          6.6234    3.4846    2.8827 C.3       1 <0>        -0.1051
      2 C2          5.1607    3.2027    3.1111 C.ar      1 <0>        -0.0720
      3 C3          4.7663    2.4296    4.1879 C.ar      1 <0>        -0.1738
      4 C4          3.4255    2.1687    4.4017 C.ar      1 <0>        -0.0984
      5 C5          2.4736    2.6838    3.5415 C.ar      1 <0>        -0.0703
      6 C6          2.8665    3.4560    2.4554 C.ar      1 <0>         0.2655
      7 C7          4.2152    3.7166    2.2440 C.ar      1 <0>        -0.0871
      8 Cl1         4.7116    4.6858    0.8920 Cl        1 <0>        -0.0543
      9 N1          1.9070    3.9747    1.5805 N.2       1 <0>        -1.0956
     10 S1          1.8038    3.4013    0.0304 S.o2      1 <0>         2.6411
     11 O1          3.1284    3.3799   -0.4837 O.2       1 <0>        -1.0359
     12 O2          0.7535    4.1215   -0.6000 O.2       1 <0>        -1.0121
     13 C8          1.2751    1.7234    0.1297 C.2       1 <0>        -0.7326
     14 C9         -0.0479    1.2813    0.2219 C.2       1 <0>        -0.0735
     15 C10        -0.0090   -0.0970    0.2765 C.2       1 <0>        -0.0456
     16 N2          1.3135   -0.4760    0.2182 N.pl3     1 <0>        -0.5325
     17 H1          1.5818   -1.5424    0.2472 H         1 <0>         0.4390
     18 C11         2.0784    0.6324    0.1297 C.2       1 <0>         0.0869
     19 C12        -1.1634   -0.9931    0.3787 C.2       1 <0>         0.5247
     20 O3         -2.2883   -0.5329    0.4234 O.co2     1 <0>        -0.6268
     21 O4         -0.9787   -2.3286    0.4234 O.co2     1 <0>        -0.7798
     22 Cl2         0.7899    2.3611    3.8147 Cl        1 <0>        -0.0685
     23 H2          7.2180    2.9962    3.6688 H         1 <0>         0.0555
     24 H3          6.7966    4.5704    2.9131 H         1 <0>         0.0631
     25 H4          6.9231    3.0929    1.8995 H         1 <0>         0.0663
     26 H5          5.5074    2.0290    4.8637 H         1 <0>         0.1142
     27 H6          3.1211    1.5649    5.2438 H         1 <0>         0.1147
     28 H7         -0.9325    1.9005    0.2418 H         1 <0>         0.1336
     29 H8          3.1566    0.6473    0.0688 H         1 <0>         0.1593
@<TRIPOS>BOND
     1    1    2 1
     2    1   23 1
     3    1   24 1
     4    1   25 1
     5    2    7 ar
     6    2    3 ar
     7    3    4 ar
     8    3   26 1
     9    4    5 ar
    10    4   27 1
    11    5    6 ar
    12    5   22 1
    13    6    7 ar
    14    6    9 1
    15    7    8 1
    16    9   10 1
    17   10   11 2
    18   10   12 2
    19   10   13 1
    20   13   18 2
    21   13   14 1
    22   14   15 2
    23   14   28 1
    24   15   16 1
    25   15   19 1
    26   16   17 1
    27   16   18 1
    28   18   29 1
    29   19   20 2
    30   19   21 1
@<TRIPOS>MOLECULE
ZINC46302211
   51    52     0     0     0
SMALL
USER_CHARGES

@<TRIPOS>ATOM
      1 C1         -0.0127    1.0858    0.0080 C.3       1 <0>        -0.0909
      2 C2         -0.7416    1.5850   -1.2129 C.ar      1 <0>         0.1571
      3 C3         -2.1064    1.7992   -1.1728 C.ar      1 <0>        -0.2706
      4 C4         -2.7418    2.2620   -2.3247 C.ar      1 <0>         0.4447
      5 O1         -4.0784    2.4858   -2.3293 O.3       1 <0>        -0.6936
      6 N1         -2.0193    2.4807   -3.4162 N.ar      1 <0>        -0.6241
      7 C5         -0.7117    2.2634   -3.4154 C.ar      1 <0>         0.3028
      8 N2         -0.0804    1.8286   -2.3343 N.ar      1 <0>        -0.5843
      9 S1          0.2107    2.5664   -4.8858 S.3       1 <0>         0.0052
     10 C6         -1.0336    3.1415   -6.0738 C.3       1 <0>        -0.1374
     11 C7         -0.3686    3.4403   -7.3927 C.2       1 <0>         0.5392
     12 O2          0.8270    3.2809   -7.5188 O.2       1 <0>        -0.5258
     13 N3         -1.1026    3.8846   -8.4321 N.am      1 <0>        -0.7265
     14 C8         -0.4561    4.1751   -9.7143 C.3       1 <0>         0.1532
     15 H1          0.5404    4.5790   -9.5355 H         1 <0>         0.0876
     16 C9         -0.3450    2.8872  -10.5327 C.3       1 <0>        -0.1319
     17 C10         0.3302    3.1905  -11.8718 C.3       1 <0>        -0.1159
     18 C11        -0.5045    4.2147  -12.6433 C.3       1 <0>        -0.1152
     19 C12        -0.6156    5.5026  -11.8249 C.3       1 <0>        -0.0833
     20 H2          0.3809    5.9065  -11.6461 H         1 <0>         0.0721
     21 C13        -1.2907    5.1993  -10.4858 C.3       1 <0>        -0.0927
     22 H3         -2.2872    4.7953  -10.6646 H         1 <0>         0.0752
     23 C14        -1.4018    6.4872   -9.6674 C.3       1 <0>        -0.1514
     24 C15        -1.4502    6.5268  -12.5965 C.3       1 <0>        -0.1480
     25 C16        -2.8905    1.5379    0.0873 C.3       1 <0>        -0.0160
     26 C17        -2.9300    2.8100    0.9364 C.3       1 <0>        -0.1653
     27 C18        -3.7141    2.5488    2.1966 C.2       1 <0>         0.4944
     28 O3         -4.1966    1.4472    2.3970 O.co2     1 <0>        -0.7031
     29 O4         -3.8659    3.4390    3.0157 O.co2     1 <0>        -0.7220
     30 H4          0.0021   -0.0041    0.0020 H         1 <0>         0.0634
     31 H5          1.0099    1.4631    0.0003 H         1 <0>         0.0610
     32 H6         -0.5229    1.4373    0.9048 H         1 <0>         0.0747
     33 H7         -1.7874    2.3668   -6.2142 H         1 <0>         0.1168
     34 H8         -1.5086    4.0458   -5.6933 H         1 <0>         0.1170
     35 H9         -2.0589    4.0121   -8.3313 H         1 <0>         0.4022
     36 H10         0.2496    2.1575   -9.9831 H         1 <0>         0.0705
     37 H11        -1.3415    2.4832  -10.7115 H         1 <0>         0.0632
     38 H12         1.3266    3.5945  -11.6930 H         1 <0>         0.0635
     39 H13         0.4093    2.2730  -12.4549 H         1 <0>         0.0627
     40 H14        -0.0235    4.4308  -13.5973 H         1 <0>         0.0606
     41 H15        -1.5010    3.8107  -12.8221 H         1 <0>         0.0619
     42 H16        -0.4054    6.8911   -9.4886 H         1 <0>         0.0554
     43 H17        -1.9965    7.2168  -10.2171 H         1 <0>         0.0582
     44 H18        -1.8828    6.2711   -8.7134 H         1 <0>         0.0600
     45 H19        -2.4467    6.1228  -12.7752 H         1 <0>         0.0538
     46 H20        -1.5294    7.4443  -12.0134 H         1 <0>         0.0588
     47 H21        -0.9692    6.7429  -13.5504 H         1 <0>         0.0522
     48 H22        -3.9072    1.2425   -0.1720 H         1 <0>         0.0638
     49 H23        -2.4129    0.7380    0.6532 H         1 <0>         0.0479
     50 H24        -1.9133    3.1055    1.1958 H         1 <0>         0.0445
     51 H25        -3.4076    3.6099    0.3706 H         1 <0>         0.0543
@<TRIPOS>BOND
     1    1   30 1
     2    1   31 1
     3    1   32 1
     4    1    2 1
     5    2    3 ar
     6    2    8 ar
     7    3    4 ar
     8    3   25 1
     9    4    6 ar
    10    4    5 1
    11    6    7 ar
    12    7    8 ar
    13    7    9 1
    14    9   10 1
    15   10   11 1
    16   10   33 1
    17   10   34 1
    18   11   12 2
    19   11   13 am
    20   13   14 1
    21   13   35 1
    22   14   15 1
    23   14   21 1
    24   14   16 1
    25   16   17 1
    26   16   36 1
    27   16   37 1
    28   17   18 1
    29   17   38 1
    30   17   39 1
    31   18   19 1
    32   18   40 1
    33   18   41 1
    34   19   20 1
    35   19   21 1
    36   19   24 1
    37   21   22 1
    38   21   23 1
    39   23   42 1
    40   23   43 1
    41   23   44 1
    42   24   45 1
    43   24   46 1
    44   24   47 1
    45   25   26 1
    46   25   48 1
    47   25   49 1
    48   26   27 1
    49   26   50 1
    50   26   51 1
    51   27   28 2
    52   27   29 1
@<TRIPOS>MOLECULE
ZINC36558937
   39    42     0     0     0
SMALL
USER_CHARGES

@<TRIPOS>ATOM
      1 C1         -0.7814    0.9452   -0.3122 C.2       1 <0>        -0.4045
      2 C2         -0.4374   -0.3324   -0.0900 C.2       1 <0>         0.2509
      3 C3         -1.4377   -1.3307    0.3271 C.2       1 <0>        -0.4798
      4 C4         -1.0907   -2.6364    0.3342 C.2       1 <0>         0.4656
      5 O1         -2.0031   -3.5743    0.6825 O.3       1 <0>        -0.7138
      6 N1          0.1890   -3.0186   -0.0123 N.pl3     1 <0>        -0.5856
      7 C5          1.0980   -2.1021   -0.4740 C.2       1 <0>         0.6467
      8 N2          0.8890   -0.7679   -0.2525 N.pl3     1 <0>        -0.6536
      9 N3          2.1401   -2.5085   -1.1689 N.2       1 <0>        -0.6653
     10 C6          2.3050   -3.8098   -1.4635 C.2       1 <0>         0.5731
     11 N4          1.5856   -4.7427   -0.9012 N.2       1 <0>        -0.6943
     12 C7          0.6130   -4.4151    0.1447 C.3       1 <0>         0.3803
     13 H1         -0.2529   -5.0710    0.0553 H         1 <0>         0.1066
     14 C8          1.2484   -4.5993    1.4988 C.ar      1 <0>        -0.1327
     15 C9          2.2450   -5.5456    1.6839 C.ar      1 <0>        -0.0428
     16 C10         2.8007   -5.6802    2.9467 C.ar      1 <0>        -0.1891
     17 C11         2.3462   -4.8724    3.9722 C.ar      1 <0>         0.0722
     18 N5          1.3961   -3.9832    3.7597 N.ar      1 <0>        -0.4947
     19 C12         0.8492   -3.8234    2.5703 C.ar      1 <0>         0.1129
     20 N6          3.2645   -4.1706   -2.3898 N.2       1 <0>        -0.6516
     21 C13         4.2970   -3.2824   -2.7096 C.ar      1 <0>         0.2382
     22 C14         4.7176   -2.3404   -1.7799 C.ar      1 <0>        -0.1807
     23 C15         5.7371   -1.4649   -2.0986 C.ar      1 <0>        -0.0952
     24 C16         6.3392   -1.5247   -3.3422 C.ar      1 <0>        -0.2301
     25 C17         5.9232   -2.4608   -4.2709 C.ar      1 <0>        -0.0835
     26 C18         4.9080   -3.3444   -3.9562 C.ar      1 <0>        -0.1079
     27 Cl1         4.3915   -4.5250   -5.1195 Cl        1 <0>        -0.1093
     28 H2         -0.0333    1.6599   -0.6218 H         1 <0>         0.0732
     29 H3         -1.8074    1.2579   -0.1857 H         1 <0>         0.0945
     30 H4         -2.4303   -1.0241    0.6223 H         1 <0>         0.1167
     31 H5          2.5800   -6.1633    0.8637 H         1 <0>         0.1438
     32 H6          3.5787   -6.4073    3.1271 H         1 <0>         0.1242
     33 H7          2.7740   -4.9711    4.9589 H         1 <0>         0.1426
     34 H8          0.0770   -3.0809    2.4333 H         1 <0>         0.1532
     35 H9          4.2476   -2.2923   -0.8087 H         1 <0>         0.1159
     36 H10         6.0644   -0.7322   -1.3757 H         1 <0>         0.0926
     37 H11         7.1359   -0.8385   -3.5886 H         1 <0>         0.0959
     38 H12         6.3950   -2.5045   -5.2414 H         1 <0>         0.1011
     39 H13         1.6316   -0.1455   -0.2067 H         1 <0>         0.4140
@<TRIPOS>BOND
     1    1    2 2
     2    1   28 1
     3    1   29 1
     4    2    8 1
     5    2    3 1
     6    3    4 2
     7    3   30 1
     8    4    5 1
     9    4    6 1
    10    6   12 1
    11    6    7 1
    12    7    8 1
    13    7    9 2
    14    8   39 1
    15    9   10 1
    16   10   11 2
    17   10   20 1
    18   11   12 1
    19   12   13 1
    20   12   14 1
    21   14   19 ar
    22   14   15 ar
    23   15   16 ar
    24   15   31 1
    25   16   17 ar
    26   16   32 1
    27   17   18 ar
    28   17   33 1
    29   18   19 ar
    30   19   34 1
    31   20   21 1
    32   21   26 ar
    33   21   22 ar
    34   22   23 ar
    35   22   35 1
    36   23   24 ar
    37   23   36 1
    38   24   25 ar
    39   24   37 1
    40   25   26 ar
    41   25   38 1
    42   26   27 1
@<TRIPOS>MOLECULE
ZINC40267727
   42    45     0     0     0
SMALL
USER_CHARGES

@<TRIPOS>ATOM
      1 C1         -0.0167    1.3796    0.0096 C.ar      1 <0>        -0.1381
      2 C2          1.1662    2.0887    0.0021 C.ar      1 <0>        -0.0880
      3 C3          2.3855    1.4066   -0.0131 C.ar      1 <0>        -0.1330
      4 C4          2.3967    0.0095   -0.0207 C.ar      1 <0>        -0.0792
      5 C5          1.2059   -0.6864   -0.0130 C.ar      1 <0>        -0.1184
      6 C6          0.0021   -0.0041    0.0020 C.ar      1 <0>        -0.0951
      7 C7         -1.2948   -0.7716    0.0107 C.3       1 <0>         0.0411
      8 H1         -2.1328   -0.0747    0.0228 H         1 <0>         0.0895
      9 C8         -1.3782   -1.6550   -1.2369 C.3       1 <0>        -0.1229
     10 C9         -0.4973   -2.8653   -1.1162 C.2       1 <0>         0.5201
     11 O1          0.0761   -3.2768   -2.1028 O.2       1 <0>        -0.5483
     12 N1         -0.3240   -3.5095    0.0599 N.am      1 <0>        -0.6237
     13 C10        -0.8858   -2.9352    1.2073 C.2       1 <0>         0.1123
     14 C11        -1.3527   -1.6554    1.2323 C.2       1 <0>        -0.0496
     15 N2         -1.8336   -1.3819    2.4761 N.pl3     1 <0>        -0.3800
     16 C12        -1.6967   -2.4581    3.2795 C.2       1 <0>         0.0332
     17 C13        -1.1015   -3.4847    2.5404 C.2       1 <0>        -0.1982
     18 C14        -0.7648   -4.8334    3.0071 C.2       1 <0>         0.5512
     19 O2         -1.0053   -5.1592    4.1623 O.co2     1 <0>        -0.6977
     20 O3         -0.2433   -5.6336    2.2415 O.co2     1 <0>        -0.6932
     21 C15        -2.3910   -0.1564    2.8674 C.ar      1 <0>         0.1276
     22 C16        -1.7184    1.0290    2.6032 C.ar      1 <0>        -0.0937
     23 C17        -2.2691    2.2352    2.9894 C.ar      1 <0>        -0.1334
     24 C18        -3.4911    2.2627    3.6403 C.ar      1 <0>         0.0885
     25 C19        -4.1632    1.0813    3.9052 C.ar      1 <0>        -0.1403
     26 C20        -3.6189   -0.1264    3.5146 C.ar      1 <0>        -0.0945
     27 F1         -4.0280    3.4436    4.0178 F         1 <0>        -0.1418
     28 C21         3.6552    2.1581   -0.0217 C.2       1 <0>         0.5214
     29 O4          3.6420    3.3809   -0.0154 O.co2     1 <0>        -0.6932
     30 O5          4.7207    1.5581   -0.0350 O.co2     1 <0>        -0.6878
     31 H2         -0.9599    1.9055    0.0260 H         1 <0>         0.1130
     32 H3          1.1501    3.1686    0.0077 H         1 <0>         0.1243
     33 H4          3.3355   -0.5243   -0.0328 H         1 <0>         0.1246
     34 H5          1.2130   -1.7663   -0.0192 H         1 <0>         0.1164
     35 H6         -2.4098   -1.9781   -1.3760 H         1 <0>         0.0996
     36 H7         -1.0681   -1.0742   -2.1056 H         1 <0>         0.1084
     37 H8          0.1723   -4.3415    0.1074 H         1 <0>         0.4256
     38 H9         -1.9965   -2.5153    4.3155 H         1 <0>         0.1745
     39 H10        -0.7650    1.0079    2.0962 H         1 <0>         0.1547
     40 H11        -1.7461    3.1576    2.7840 H         1 <0>         0.1436
     41 H12        -5.1160    1.1046    4.4132 H         1 <0>         0.1393
     42 H13        -4.1457   -1.0473    3.7170 H         1 <0>         0.1412
@<TRIPOS>BOND
     1    1    6 ar
     2    1    2 ar
     3    1   31 1
     4    2    3 ar
     5    2   32 1
     6    3    4 ar
     7    3   28 1
     8    4    5 ar
     9    4   33 1
    10    5    6 ar
    11    5   34 1
    12    6    7 1
    13    7    8 1
    14    7   14 1
    15    7    9 1
    16    9   10 1
    17    9   35 1
    18    9   36 1
    19   10   11 2
    20   10   12 am
    21   12   13 1
    22   12   37 1
    23   13   17 1
    24   13   14 2
    25   14   15 1
    26   15   16 1
    27   15   21 1
    28   16   17 2
    29   16   38 1
    30   17   18 1
    31   18   19 2
    32   18   20 1
    33   21   26 ar
    34   21   22 ar
    35   22   23 ar
    36   22   39 1
    37   23   24 ar
    38   23   40 1
    39   24   25 ar
    40   24   27 1
    41   25   26 ar
    42   25   41 1
    43   26   42 1
    44   28   29 2
    45   28   30 1
@<TRIPOS>MOLECULE
ZINC00691091
   51    54     0     0     0
SMALL
USER_CHARGES
2-amino-1-morpholino-5-oxo-4-[2-(trifluoromethyl)phenyl]-4,6,7,8-tetrahydroquinoline-3-carbonitrile
@<TRIPOS>ATOM
      1 C1         -3.4327    6.0849   -2.2511 C.ar      1 <0>        -0.0906
      2 C2         -2.8723    6.5208   -3.4374 C.ar      1 <0>        -0.1244
      3 C3         -2.3355    5.6073   -4.3249 C.ar      1 <0>        -0.0734
      4 C4         -2.3581    4.2576   -4.0259 C.ar      1 <0>        -0.1677
      5 C5         -2.9171    3.8219   -2.8393 C.ar      1 <0>        -0.0165
      6 C6         -3.4588    4.7353   -1.9540 C.ar      1 <0>        -0.1095
      7 C7         -2.9417    2.3508   -2.5134 C.3       1 <0>         0.0874
      8 H1         -2.4635    1.7977   -3.3218 H         1 <0>         0.0953
      9 C8         -4.3667    1.8990   -2.3852 C.2       1 <0>        -0.2552
     10 C9         -4.9317    1.6978   -1.1661 C.2       1 <0>         0.5140
     11 N1         -4.1952    1.8992   -0.0230 N.pl3     1 <0>        -0.3887
     12 C10        -2.8271    1.9045   -0.0689 C.2       1 <0>         0.1904
     13 C11        -2.1789    2.1150   -1.2342 C.2       1 <0>        -0.2410
     14 C12        -0.7743    2.1222   -1.2912 C.2       1 <0>         0.3902
     15 O1         -0.2216    2.2993   -2.3588 O.2       1 <0>        -0.4376
     16 C13         0.0572    1.9153   -0.0548 C.3       1 <0>        -0.1589
     17 C14        -0.7280    2.4107    1.1643 C.3       1 <0>        -0.1115
     18 C15        -2.0660    1.6649    1.2118 C.3       1 <0>        -0.1224
     19 N2         -4.8339    2.0960    1.1683 N.3       1 <0>        -0.2989
     20 C16        -4.4144    3.3613    1.7882 C.3       1 <0>        -0.0181
     21 C17        -5.1962    3.5705    3.0878 C.3       1 <0>         0.0680
     22 O2         -4.9863    2.4493    3.9503 O.3       1 <0>        -0.3769
     23 C18        -5.3845    1.2004    3.3784 C.3       1 <0>         0.0678
     24 C19        -4.6046    0.9672    2.0818 C.3       1 <0>        -0.0385
     25 N3         -6.2413    1.2920   -1.0757 N.pl3     1 <0>        -0.8408
     26 C20        -5.1440    1.6767   -3.5671 C.1       1 <0>         0.2717
     27 N4         -5.7607    1.5003   -4.5047 N.1       1 <0>        -0.4418
     28 C21        -1.7728    3.2616   -4.9936 C.3       1 <0>         0.4943
     29 F1         -1.2715    3.9368   -6.1116 F         1 <0>        -0.1835
     30 F2         -0.7364    2.5589   -4.3697 F         1 <0>        -0.1433
     31 F3         -2.7672    2.3644   -5.3978 F         1 <0>        -0.1788
     32 H2         -3.8525    6.7987   -1.5578 H         1 <0>         0.1288
     33 H3         -2.8544    7.5751   -3.6708 H         1 <0>         0.1328
     34 H4         -1.8981    5.9478   -5.2518 H         1 <0>         0.1369
     35 H5         -3.8996    4.3945   -1.0288 H         1 <0>         0.1214
     36 H6          0.2636    0.9424    0.0491 H         1 <0>         0.0915
     37 H7          0.9874    2.4767   -0.1425 H         1 <0>         0.0997
     38 H8         -0.1604    2.2082    2.0726 H         1 <0>         0.0900
     39 H9         -0.9089    3.4817    1.0730 H         1 <0>         0.0770
     40 H10        -2.6528    2.0273    2.0559 H         1 <0>         0.1066
     41 H11        -1.8815    0.5971    1.3300 H         1 <0>         0.1045
     42 H12        -3.3474    3.3230    2.0076 H         1 <0>         0.0771
     43 H13        -4.6167    4.1861    1.1049 H         1 <0>         0.1019
     44 H14        -6.2587    3.6625    2.8625 H         1 <0>         0.0678
     45 H15        -4.8486    4.4787    3.5802 H         1 <0>         0.1123
     46 H16        -6.4525    1.2235    3.1616 H         1 <0>         0.0664
     47 H17        -5.1724    0.3943    4.0808 H         1 <0>         0.1111
     48 H18        -4.9458    0.0443    1.6128 H         1 <0>         0.0994
     49 H19        -3.5405    0.8901    2.3052 H         1 <0>         0.0853
     50 H20        -6.7866    1.2314   -1.8756 H         1 <0>         0.4181
     51 H21        -6.6205    1.0661   -0.2119 H         1 <0>         0.4103
@<TRIPOS>BOND
     1    1    6 ar
     2    1    2 ar
     3    1   32 1
     4    2    3 ar
     5    2   33 1
     6    3    4 ar
     7    3   34 1
     8    4    5 ar
     9    4   28 1
    10    5    6 ar
    11    5    7 1
    12    6   35 1
    13    7    8 1
    14    7   13 1
    15    7    9 1
    16    9   10 2
    17    9   26 1
    18   10   11 1
    19   10   25 1
    20   11   12 1
    21   11   19 1
    22   12   18 1
    23   12   13 2
    24   13   14 1
    25   14   15 2
    26   14   16 1
    27   16   17 1
    28   16   36 1
    29   16   37 1
    30   17   18 1
    31   17   38 1
    32   17   39 1
    33   18   40 1
    34   18   41 1
    35   19   24 1
    36   19   20 1
    37   20   21 1
    38   20   42 1
    39   20   43 1
    40   21   22 1
    41   21   44 1
    42   21   45 1
    43   22   23 1
    44   23   24 1
    45   23   46 1
    46   23   47 1
    47   24   48 1
    48   24   49 1
    49   25   50 1
    50   25   51 1
    51   26   27 3
    52   28   29 1
    53   28   30 1
    54   28   31 1
@<TRIPOS>MOLECULE
ZINC13567605
   59    63     0     0     0
SMALL
USER_CHARGES
(4R)-1'-allyl-2-amino-7,7-dimethyl-2',5-dioxo-1-(3-pyridyl)spiro[6,8-dihydroquinoline-4,3'-indoline]-3-carbonitrile
@<TRIPOS>ATOM
      1 C1          6.0214    6.4627   -1.5238 C.3       1 <0>        -0.1553
      2 C2          5.7513    5.5068   -2.6875 C.3       1 <0>        -0.0541
      3 C3          5.7066    4.0671   -2.1706 C.3       1 <0>        -0.0864
      4 C4          4.5847    3.9218   -1.1720 C.2       1 <0>         0.2398
      5 C5          3.4623    4.6667   -1.2737 C.2       1 <0>        -0.2430
      6 C6          3.3114    5.6115   -2.3038 C.2       1 <0>         0.4040
      7 O1          2.2851    6.2584   -2.3734 O.2       1 <0>        -0.4543
      8 C7          4.3960    5.8370   -3.3212 C.3       1 <0>        -0.1460
      9 C8          2.3396    4.5082   -0.2820 C.3       1 <0>         0.1080
     10 C9          1.1844    3.7861   -0.9050 C.ar      1 <0>        -0.1357
     11 C10         1.0782    2.5147   -1.4259 C.ar      1 <0>        -0.0488
     12 C11        -0.1620    2.1429   -1.9337 C.ar      1 <0>        -0.1535
     13 C12        -1.2335    3.0126   -1.9214 C.ar      1 <0>        -0.0809
     14 C13        -1.1348    4.2911   -1.3954 C.ar      1 <0>        -0.1466
     15 C14         0.1047    4.6765   -0.8821 C.ar      1 <0>         0.1717
     16 N1          0.4838    5.8780   -0.3111 N.am      1 <0>        -0.5352
     17 C15         1.7776    5.8716    0.0697 C.2       1 <0>         0.5528
     18 O2          2.3784    6.7848    0.5952 O.2       1 <0>        -0.4916
     19 C16        -0.4142    7.0229   -0.1406 C.3       1 <0>         0.1424
     20 C17        -1.1016    6.9273    1.1971 C.2       1 <0>        -0.1840
     21 C18        -1.0274    7.9237    2.0444 C.2       1 <0>        -0.1605
     22 C19         2.7981    3.8090    0.9625 C.2       1 <0>        -0.2264
     23 C20         3.9550    3.0962    0.9774 C.2       1 <0>         0.4907
     24 N2          4.7290    3.0119   -0.1577 N.pl3     1 <0>        -0.4857
     25 C21         5.6740    1.9859   -0.2770 C.ar      1 <0>         0.0434
     26 C22         6.9630    2.1505    0.2248 C.ar      1 <0>        -0.0679
     27 C23         7.8606    1.1046    0.0881 C.ar      1 <0>        -0.1587
     28 C24         7.4552   -0.0546   -0.5474 C.ar      1 <0>         0.1207
     29 N3          6.2289   -0.1769   -1.0164 N.ar      1 <0>        -0.4665
     30 C25         5.3419    0.7914   -0.9022 C.ar      1 <0>         0.1299
     31 N4          4.3532    2.4588    2.1280 N.pl3     1 <0>        -0.8466
     32 C26         2.0060    3.8940    2.1525 C.1       1 <0>         0.2668
     33 N5          1.3776    3.9614    3.0964 N.1       1 <0>        -0.4329
     34 C27         6.8598    5.6435   -3.7332 C.3       1 <0>        -0.1411
     35 H1          6.9775    6.2137   -1.0635 H         1 <0>         0.0611
     36 H2          6.0527    7.4871   -1.8949 H         1 <0>         0.0657
     37 H3          5.2264    6.3684   -0.7841 H         1 <0>         0.0637
     38 H4          6.6542    3.8247   -1.6897 H         1 <0>         0.0931
     39 H5          5.5392    3.3872   -3.0060 H         1 <0>         0.1042
     40 H6          4.3895    6.7928   -3.6151 H         1 <0>         0.0909
     41 H7          4.2294    5.1909   -4.1832 H         1 <0>         0.1046
     42 H8          1.9198    1.8380   -1.4396 H         1 <0>         0.1257
     43 H9         -0.2880    1.1546   -2.3504 H         1 <0>         0.1233
     44 H10        -2.1782    2.6858   -2.3302 H         1 <0>         0.1246
     45 H11        -1.9806    4.9626   -1.3868 H         1 <0>         0.1311
     46 H12         0.1621    7.9469   -0.1877 H         1 <0>         0.0928
     47 H13        -1.1615    7.0199   -0.9341 H         1 <0>         0.0933
     48 H14        -1.6553    6.0373    1.4573 H         1 <0>         0.1112
     49 H15        -0.4736    8.8137    1.7842 H         1 <0>         0.1002
     50 H16        -1.5200    7.8552    3.0030 H         1 <0>         0.1019
     51 H17         7.2540    3.0693    0.7121 H         1 <0>         0.1454
     52 H18         8.8672    1.1954    0.4690 H         1 <0>         0.1488
     53 H19         8.1526   -0.8714   -0.6609 H         1 <0>         0.1679
     54 H20         4.3467    0.6542   -1.2987 H         1 <0>         0.1638
     55 H21         3.7657    2.4389    2.8996 H         1 <0>         0.4219
     56 H22         5.2217    2.0287    2.1686 H         1 <0>         0.4050
     57 H23         6.6609    4.9668   -4.5642 H         1 <0>         0.0623
     58 H24         6.8892    6.6698   -4.0994 H         1 <0>         0.0666
     59 H25         7.8190    5.3915   -3.2809 H         1 <0>         0.0624
@<TRIPOS>BOND
     1    1    2 1
     2    1   35 1
     3    1   36 1
     4    1   37 1
     5    2    8 1
     6    2    3 1
     7    2   34 1
     8    3    4 1
     9    3   38 1
    10    3   39 1
    11    4   24 1
    12    4    5 2
    13    5    6 1
    14    5    9 1
    15    6    7 2
    16    6    8 1
    17    8   40 1
    18    8   41 1
    19    9   17 1
    20    9   10 1
    21    9   22 1
    22   10   15 ar
    23   10   11 ar
    24   11   12 ar
    25   11   42 1
    26   12   13 ar
    27   12   43 1
    28   13   14 ar
    29   13   44 1
    30   14   15 ar
    31   14   45 1
    32   15   16 1
    33   16   17 am
    34   16   19 1
    35   17   18 2
    36   19   20 1
    37   19   46 1
    38   19   47 1
    39   20   21 2
    40   20   48 1
    41   21   49 1
    42   21   50 1
    43   22   23 2
    44   22   32 1
    45   23   24 1
    46   23   31 1
    47   24   25 1
    48   25   30 ar
    49   25   26 ar
    50   26   27 ar
    51   26   51 1
    52   27   28 ar
    53   27   52 1
    54   28   29 ar
    55   28   53 1
    56   29   30 ar
    57   30   54 1
    58   31   55 1
    59   31   56 1
    60   32   33 3
    61   34   57 1
    62   34   58 1
    63   34   59 1
@<TRIPOS>MOLECULE
ZINC35056583
   57    60     0     0     0
SMALL
USER_CHARGES

@<TRIPOS>ATOM
      1 C1         -0.0184    1.5028    0.0103 C.3       1 <0>        -0.1134
      2 C2          0.0021   -0.0041    0.0020 C.ar      1 <0>        -0.1173
      3 C3          0.0057   -0.6877   -1.2000 C.ar      1 <0>        -0.0803
      4 C4          0.0240   -2.0688   -1.2103 C.ar      1 <0>        -0.1910
      5 C5          0.0391   -2.7702   -0.0132 C.ar      1 <0>         0.1212
      6 C6          0.0359   -2.0821    1.1912 C.ar      1 <0>        -0.1433
      7 C7          0.0229   -0.7005    1.1961 C.ar      1 <0>        -0.0510
      8 C8          0.0251    0.0478    2.5041 C.3       1 <0>        -0.1178
      9 O1          0.0567   -4.1291   -0.0207 O.3       1 <0>        -0.3262
     10 C9          0.0584   -4.7708   -1.2975 C.3       1 <0>         0.2395
     11 H1          0.8929   -4.3955   -1.8898 H         1 <0>         0.1239
     12 C10         0.2102   -6.2809   -1.1064 C.3       1 <0>         0.1028
     13 H2          1.1143   -6.4849   -0.5327 H         1 <0>         0.1215
     14 C11        -1.0072   -6.8311   -0.3530 C.3       1 <0>         0.1123
     15 H3         -1.0485   -6.3947    0.6450 H         1 <0>         0.0930
     16 C12        -2.2681   -6.4546   -1.1309 C.3       1 <0>         0.0694
     17 H4         -2.2315   -6.9055   -2.1226 H         1 <0>         0.0743
     18 C13        -2.3235   -4.9274   -1.2651 C.3       1 <0>         0.0272
     19 H5         -2.3330   -4.4762   -0.2729 H         1 <0>         0.0916
     20 O2         -1.1704   -4.4860   -1.9740 O.3       1 <0>        -0.3627
     21 C14        -3.6075   -4.5533   -2.0068 C.3       1 <0>         0.0716
     22 O3         -4.7179   -5.1174   -1.2979 O.3       1 <0>        -0.3721
     23 C15        -4.6521   -6.5343   -1.1303 C.3       1 <0>         0.2905
     24 H6         -4.6740   -7.0154   -2.1081 H         1 <0>         0.0723
     25 O4         -3.4438   -6.8944   -0.4513 O.3       1 <0>        -0.3610
     26 C16        -5.8349   -6.9970   -0.3192 C.ar      1 <0>        -0.0910
     27 C17        -5.6360   -7.6405    0.8880 C.ar      1 <0>        -0.0812
     28 C18        -6.7210   -8.0650    1.6320 C.ar      1 <0>        -0.1255
     29 C19        -8.0049   -7.8455    1.1691 C.ar      1 <0>        -0.1076
     30 C20        -8.2038   -7.2012   -0.0376 C.ar      1 <0>        -0.1245
     31 C21        -7.1189   -6.7730   -0.7796 C.ar      1 <0>        -0.0900
     32 O5         -0.9070   -8.2530   -0.2516 O.3       1 <0>        -0.5434
     33 N1          0.3067   -6.9308   -2.4158 N.am      1 <0>        -0.7113
     34 C22         1.4991   -7.0196   -3.0378 C.2       1 <0>         0.5144
     35 O6          2.4921   -6.5616   -2.5135 O.2       1 <0>        -0.5405
     36 C23         1.5983   -7.6881   -4.3848 C.3       1 <0>        -0.1705
     37 H7          1.0042    1.8801    0.0026 H         1 <0>         0.0691
     38 H8         -0.5455    1.8639   -0.8728 H         1 <0>         0.0652
     39 H9         -0.5286    1.8543    0.9071 H         1 <0>         0.0683
     40 H10        -0.0061   -0.1413   -2.1315 H         1 <0>         0.1252
     41 H11         0.0261   -2.6023   -2.1493 H         1 <0>         0.1321
     42 H12         0.0477   -2.6258    2.1243 H         1 <0>         0.1298
     43 H13        -1.0019    0.2143    2.8292 H         1 <0>         0.0740
     44 H14         0.5541   -0.5371    3.2565 H         1 <0>         0.0686
     45 H15         0.5247    1.0077    2.3728 H         1 <0>         0.0722
     46 H16        -3.7078   -3.4685   -2.0434 H         1 <0>         0.1157
     47 H17        -3.5765   -4.9542   -3.0199 H         1 <0>         0.0690
     48 H18        -4.6329   -7.8120    1.2497 H         1 <0>         0.1337
     49 H19        -6.5655   -8.5684    2.5748 H         1 <0>         0.1261
     50 H20        -8.8525   -8.1777    1.7500 H         1 <0>         0.1248
     51 H21        -9.2069   -7.0300   -0.3995 H         1 <0>         0.1268
     52 H22        -7.2744   -6.2663   -1.7206 H         1 <0>         0.1258
     53 H23        -0.1198   -8.5592    0.2191 H         1 <0>         0.3857
     54 H24        -0.4876   -7.2971   -2.8352 H         1 <0>         0.4078
     55 H25         0.6115   -8.0342   -4.6922 H         1 <0>         0.0777
     56 H26         1.9778   -6.9754   -5.1170 H         1 <0>         0.0990
     57 H27         2.2774   -8.5382   -4.3194 H         1 <0>         0.0996
@<TRIPOS>BOND
     1    1    2 1
     2    1   37 1
     3    1   38 1
     4    1   39 1
     5    2    7 ar
     6    2    3 ar
     7    3    4 ar
     8    3   40 1
     9    4    5 ar
    10    4   41 1
    11    5    6 ar
    12    5    9 1
    13    6    7 ar
    14    6   42 1
    15    7    8 1
    16    8   43 1
    17    8   44 1
    18    8   45 1
    19    9   10 1
    20   10   11 1
    21   10   20 1
    22   10   12 1
    23   12   13 1
    24   12   14 1
    25   12   33 1
    26   14   15 1
    27   14   16 1
    28   14   32 1
    29   16   17 1
    30   16   25 1
    31   16   18 1
    32   18   19 1
    33   18   20 1
    34   18   21 1
    35   21   22 1
    36   21   46 1
    37   21   47 1
    38   22   23 1
    39   23   24 1
    40   23   25 1
    41   23   26 1
    42   26   31 ar
    43   26   27 ar
    44   27   28 ar
    45   27   48 1
    46   28   29 ar
    47   28   49 1
    48   29   30 ar
    49   29   50 1
    50   30   31 ar
    51   30   51 1
    52   31   52 1
    53   32   53 1
    54   33   34 am
    55   33   54 1
    56   34   35 2
    57   34   36 1
    58   36   55 1
    59   36   56 1
    60   36   57 1
@<TRIPOS>MOLECULE
ZINC49171765
   63    66     0     0     0
SMALL
USER_CHARGES

@<TRIPOS>ATOM
      1 C1          0.8801   -0.2031   -1.2297 C.3       1 <0>        -0.1486
      2 C2         -0.0262   -0.0540   -0.0060 C.3       1 <0>        -0.0904
      3 C3         -1.3303   -0.8189   -0.2410 C.3       1 <0>        -0.1469
      4 C4          0.6827   -0.6207    1.2257 C.3       1 <0>        -0.0993
      5 C5         -0.1607   -0.3438    2.4719 C.3       1 <0>         0.1481
      6 H1         -1.1514   -0.7820    2.3509 H         1 <0>         0.0896
      7 C6          0.5163   -0.9375    3.6905 C.ar      1 <0>        -0.0727
      8 C7          1.4950   -1.8872    3.5814 C.ar      1 <0>        -0.1389
      9 C8          2.1512   -2.3278    4.7266 C.ar      1 <0>        -0.0981
     10 C9          1.8599   -1.8292    5.9810 C.ar      1 <0>        -0.1157
     11 C10         0.8480   -0.8839    6.1192 C.ar      1 <0>         0.1259
     12 C11         0.1735   -0.5078    4.9564 C.ar      1 <0>        -0.1078
     13 C12        -0.9989    0.2761    5.3848 C.2       1 <0>        -0.1691
     14 C13        -0.8635    0.4707    6.6883 C.2       1 <0>         0.0630
     15 N1          0.2741   -0.1641    7.1412 N.pl3     1 <0>        -0.4856
     16 C14         0.7942   -0.0836    8.5084 C.3       1 <0>         0.2046
     17 C15         1.8401    0.9987    8.5851 C.2       1 <0>         0.1738
     18 N2          3.1179    0.8378    8.3743 N.2       1 <0>        -0.4670
     19 C16         3.7431    2.0144    8.5284 C.2       1 <0>        -0.0251
     20 C17         2.8177    2.9395    8.8466 C.2       1 <0>        -0.0441
     21 N3          1.6095    2.2967    8.8775 N.pl3     1 <0>        -0.4488
     22 C18         0.3095    2.9032    9.1750 C.3       1 <0>         0.0702
     23 C19        -2.0750    0.6367    4.3916 C.3       1 <0>        -0.0596
     24 C20        -1.5039    1.5763    3.3473 C.3       1 <0>         0.0908
     25 H2         -2.2658    1.7455    2.5863 H         1 <0>         0.0949
     26 N4         -0.2812    1.1099    2.6785 N.3       1 <0>        -0.6762
     27 C21        -1.2022    2.8948    4.0120 C.2       1 <0>         0.5176
     28 O1         -0.0665    3.1605    4.3443 O.2       1 <0>        -0.5257
     29 N5         -2.1945    3.7786    4.2371 N.am      1 <0>        -0.7282
     30 C22        -1.9011    5.0603    4.8832 C.3       1 <0>         0.1395
     31 C23        -1.4402    6.0691    3.8293 C.3       1 <0>        -0.1644
     32 C24        -3.1623    5.5840    5.5732 C.3       1 <0>        -0.1611
     33 H3          1.1728   -1.2473   -1.3399 H         1 <0>         0.0508
     34 H4          0.3426    0.1196   -2.1214 H         1 <0>         0.0519
     35 H5          1.7704    0.4120   -1.0995 H         1 <0>         0.0526
     36 H6         -0.2478    1.0009    0.1555 H         1 <0>         0.0841
     37 H7         -1.1087   -1.8739   -0.4025 H         1 <0>         0.0504
     38 H8         -1.9759   -0.7127    0.6308 H         1 <0>         0.0523
     39 H9         -1.8353   -0.4152   -1.1185 H         1 <0>         0.0509
     40 H10         0.8132   -1.6963    1.1070 H         1 <0>         0.0693
     41 H11         1.6579   -0.1461    1.3342 H         1 <0>         0.0662
     42 H12         1.7558   -2.2919    2.6146 H         1 <0>         0.1265
     43 H13         2.9144   -3.0860    4.6312 H         1 <0>         0.1218
     44 H14         2.4115   -2.1688    6.8451 H         1 <0>         0.1211
     45 H15        -1.5426    1.0414    7.3043 H         1 <0>         0.1573
     46 H16        -0.0206    0.1493    9.1940 H         1 <0>         0.1010
     47 H17         1.2395   -1.0394    8.7846 H         1 <0>         0.1158
     48 H18         4.8030    2.1893    8.4167 H         1 <0>         0.1724
     49 H19         2.9942    3.9879    9.0368 H         1 <0>         0.1765
     50 H20         0.1220    2.8526   10.2476 H         1 <0>         0.0802
     51 H21         0.3131    3.9453    8.8556 H         1 <0>         0.0891
     52 H22        -0.4737    2.3629    8.6433 H         1 <0>         0.0806
     53 H23        -2.4392   -0.2685    3.9057 H         1 <0>         0.0853
     54 H24        -2.8986    1.1273    4.9104 H         1 <0>         0.0774
     55 H25         0.5411    1.4802    3.1311 H         1 <0>         0.3624
     56 H26        -3.1028    3.5661    3.9713 H         1 <0>         0.3992
     57 H27        -1.1128    4.9222    5.6232 H         1 <0>         0.0828
     58 H28        -1.2219    7.0227    4.3100 H         1 <0>         0.0642
     59 H29        -0.5417    5.6960    3.3377 H         1 <0>         0.0610
     60 H30        -2.2285    6.2072    3.0893 H         1 <0>         0.0575
     61 H31        -3.4907    4.8654    6.3241 H         1 <0>         0.0600
     62 H32        -2.9441    6.5376    6.0540 H         1 <0>         0.0722
     63 H33        -3.9506    5.7222    4.8332 H         1 <0>         0.0625
@<TRIPOS>BOND
     1    1    2 1
     2    1   33 1
     3    1   34 1
     4    1   35 1
     5    2    3 1
     6    2    4 1
     7    2   36 1
     8    3   37 1
     9    3   38 1
    10    3   39 1
    11    4    5 1
    12    4   40 1
    13    4   41 1
    14    5    6 1
    15    5   26 1
    16    5    7 1
    17    7   12 ar
    18    7    8 ar
    19    8    9 ar
    20    8   42 1
    21    9   10 ar
    22    9   43 1
    23   10   11 ar
    24   10   44 1
    25   11   15 1
    26   11   12 ar
    27   12   13 1
    28   13   14 2
    29   13   23 1
    30   14   15 1
    31   14   45 1
    32   15   16 1
    33   16   17 1
    34   16   46 1
    35   16   47 1
    36   17   21 1
    37   17   18 2
    38   18   19 1
    39   19   20 2
    40   19   48 1
    41   20   21 1
    42   20   49 1
    43   21   22 1
    44   22   50 1
    45   22   51 1
    46   22   52 1
    47   23   24 1
    48   23   53 1
    49   23   54 1
    50   24   25 1
    51   24   26 1
    52   24   27 1
    53   26   55 1
    54   27   28 2
    55   27   29 am
    56   29   30 1
    57   29   56 1
    58   30   31 1
    59   30   32 1
    60   30   57 1
    61   31   58 1
    62   31   59 1
    63   31   60 1
    64   32   61 1
    65   32   62 1
    66   32   63 1
@<TRIPOS>MOLECULE
ZINC15956639
   50    54     0     0     0
SMALL
USER_CHARGES

@<TRIPOS>ATOM
      1 C1          0.1586    1.6750   -0.0572 C.3       1 <0>        -0.1186
      2 S1          0.1281   -0.1386   -0.0309 S.3       1 <0>        -0.2684
      3 C2         -1.6391   -0.5478   -0.0279 C.3       1 <0>        -0.0802
      4 C3         -1.8105   -2.0681   -0.0061 C.3       1 <0>        -0.1000
      5 C4         -3.3010   -2.4133   -0.0035 C.3       1 <0>         0.0900
      6 H1         -3.8031   -1.9297   -0.8415 H         1 <0>         0.1126
      7 C5         -3.4983   -3.9430   -0.0693 C.3       1 <0>        -0.1524
      8 H2         -2.6080   -4.4950    0.2318 H         1 <0>         0.1482
      9 C6         -4.7232   -4.2258    0.8447 C.3       1 <0>        -0.1326
     10 H3         -4.5040   -4.9463    1.6327 H         1 <0>         0.1508
     11 C7         -5.7723   -4.7248   -0.1226 C.2       1 <0>         0.5361
     12 O1         -6.8980   -5.0606    0.1768 O.2       1 <0>        -0.4570
     13 N1         -5.2654   -4.7376   -1.3608 N.am      1 <0>        -0.5206
     14 C8         -3.9809   -4.3213   -1.4515 C.2       1 <0>         0.5429
     15 O2         -3.3204   -4.2565   -2.4660 O.2       1 <0>        -0.4493
     16 C9         -6.0029   -5.1551   -2.4777 C.ar      1 <0>         0.1060
     17 C10        -6.3491   -4.2413   -3.4637 C.ar      1 <0>        -0.0917
     18 C11        -7.0757   -4.6556   -4.5629 C.ar      1 <0>        -0.1096
     19 C12        -7.4582   -5.9791   -4.6817 C.ar      1 <0>        -0.1062
     20 C13        -7.1148   -6.8916   -3.7011 C.ar      1 <0>        -0.1101
     21 C14        -6.3834   -6.4844   -2.6025 C.ar      1 <0>        -0.1010
     22 C15        -5.1187   -2.8519    1.3980 C.3       1 <0>         0.1285
     23 N2         -3.9254   -2.0010    1.2815 N.3       1 <0>        -0.6151
     24 C16        -5.6098   -2.9470    2.8145 C.ar      1 <0>        -0.1469
     25 C17        -5.0450   -3.4009    3.9855 C.ar      1 <0>        -0.0541
     26 C18        -5.7672   -3.3580    5.1649 C.ar      1 <0>        -0.1383
     27 C19        -7.0568   -2.8585    5.1643 C.ar      1 <0>        -0.0710
     28 C20        -7.6271   -2.4036    3.9937 C.ar      1 <0>        -0.1375
     29 C21        -6.9071   -2.4431    2.8019 C.ar      1 <0>         0.1654
     30 N3         -7.2595   -2.0489    1.5093 N.am      1 <0>        -0.6527
     31 C22        -6.2643   -2.2566    0.6257 C.2       1 <0>         0.5501
     32 O3         -6.2871   -2.0111   -0.5618 O.2       1 <0>        -0.4806
     33 H4          1.1922    2.0210   -0.0605 H         1 <0>         0.1025
     34 H5         -0.3476    2.0339   -0.9533 H         1 <0>         0.0767
     35 H6         -0.3506    2.0597    0.8265 H         1 <0>         0.0770
     36 H7         -2.1104   -0.1164    0.8552 H         1 <0>         0.0913
     37 H8         -2.1075   -0.1422   -0.9246 H         1 <0>         0.0827
     38 H9         -1.3391   -2.4995   -0.8892 H         1 <0>         0.0935
     39 H10        -1.3420   -2.4737    0.8906 H         1 <0>         0.0830
     40 H11        -6.0509   -3.2074   -3.3713 H         1 <0>         0.1287
     41 H12        -7.3457   -3.9451   -5.3301 H         1 <0>         0.1325
     42 H13        -8.0267   -6.3006   -5.5419 H         1 <0>         0.1307
     43 H14        -7.4150   -7.9246   -3.7966 H         1 <0>         0.1326
     44 H15        -6.1116   -7.1984   -1.8392 H         1 <0>         0.1247
     45 H16        -3.3001   -2.1648    2.0563 H         1 <0>         0.3576
     46 H17        -4.0378   -3.7909    3.9832 H         1 <0>         0.1305
     47 H18        -5.3250   -3.7142    6.0836 H         1 <0>         0.1348
     48 H19        -7.6203   -2.8247    6.0851 H         1 <0>         0.1355
     49 H20        -8.6349   -2.0155    4.0012 H         1 <0>         0.1305
     50 H21        -8.1210   -1.6697    1.2749 H         1 <0>         0.4186
@<TRIPOS>BOND
     1    1    2 1
     2    1   33 1
     3    1   34 1
     4    1   35 1
     5    2    3 1
     6    3    4 1
     7    3   36 1
     8    3   37 1
     9    4    5 1
    10    4   38 1
    11    4   39 1
    12    5    6 1
    13    5   23 1
    14    5    7 1
    15    7    8 1
    16    7   14 1
    17    7    9 1
    18    9   10 1
    19    9   11 1
    20    9   22 1
    21   11   12 2
    22   11   13 am
    23   13   14 am
    24   13   16 1
    25   14   15 2
    26   16   21 ar
    27   16   17 ar
    28   17   18 ar
    29   17   40 1
    30   18   19 ar
    31   18   41 1
    32   19   20 ar
    33   19   42 1
    34   20   21 ar
    35   20   43 1
    36   21   44 1
    37   22   31 1
    38   22   23 1
    39   22   24 1
    40   23   45 1
    41   24   29 ar
    42   24   25 ar
    43   25   26 ar
    44   25   46 1
    45   26   27 ar
    46   26   47 1
    47   27   28 ar
    48   27   48 1
    49   28   29 ar
    50   28   49 1
    51   29   30 1
    52   30   31 am
    53   30   50 1
    54   31   32 2
@<TRIPOS>MOLECULE
ZINC65259707
   61    64     0     0     0
SMALL
USER_CHARGES

@<TRIPOS>ATOM
      1 C1          0.7291    2.7038    0.0303 C.ar      1 <0>        -0.0623
      2 C2          1.9486    3.2698    0.3520 C.ar      1 <0>        -0.1401
      3 C3          3.0972    2.5013    0.3205 C.ar      1 <0>        -0.0202
      4 C4          3.0263    1.1667   -0.0324 C.ar      1 <0>        -0.6711
      5 C5          1.8068    0.6004   -0.3533 C.ar      1 <0>        -0.0123
      6 C6          0.6584    1.3692   -0.3231 C.ar      1 <0>        -0.1374
      7 S1          4.4905    0.1874   -0.0738 S.o2      1 <0>         2.7069
      8 O1          4.2326   -0.8914   -0.9620 O.2       1 <0>        -0.9503
      9 O2          5.5750    1.0862   -0.2615 O.2       1 <0>        -0.9533
     10 N1          4.6796   -0.4745    1.4324 N.pl3     1 <0>        -1.0029
     11 C7          5.4182    0.1362    2.5533 C.3       1 <0>         0.1397
     12 C8          4.8076   -0.5014    3.8275 C.3       1 <0>        -0.1262
     13 H1          5.5221   -0.4913    4.6506 H         1 <0>         0.1162
     14 C9          4.5337   -1.9450    3.3491 C.3       1 <0>        -0.0373
     15 C10         4.1330   -1.7669    1.8765 C.3       1 <0>         0.1333
     16 C11         3.3873   -2.5537    4.1452 C.3       1 <0>        -0.1230
     17 C12         3.7933   -2.6748    5.6167 C.3       1 <0>        -0.1184
     18 C13         5.0435   -3.5498    5.7287 C.3       1 <0>        -0.1207
     19 C14         6.1908   -2.9074    4.9463 C.3       1 <0>        -0.1199
     20 C15         5.7959   -2.7874    3.4715 C.3       1 <0>        -0.1093
     21 C16         3.5276    0.1914    4.2183 C.2       1 <0>         0.5318
     22 O3          2.5259    0.0352    3.5527 O.2       1 <0>        -0.5200
     23 N2          3.4961    0.9846    5.3075 N.am      1 <0>        -0.6134
     24 C17         4.7274    1.2850    6.0507 C.3       1 <0>         0.1000
     25 C18         4.5103    0.9357    7.5264 C.3       1 <0>        -0.1170
     26 C19         3.2699    1.6684    8.0428 C.3       1 <0>        -0.1084
     27 C20         2.0407    1.2132    7.2528 C.3       1 <0>        -0.1252
     28 C21         2.2307    1.5702    5.7707 C.3       1 <0>         0.1149
     29 C22         3.0727    1.3539    9.5033 C.2       1 <0>         0.5207
     30 O4          3.8477    0.6166   10.0749 O.2       1 <0>        -0.5389
     31 N3          2.0351    1.8920   10.1744 N.am      1 <0>        -0.8560
     32 H2         -0.1689    3.3031    0.0593 H         1 <0>         0.1296
     33 H3          2.0039    4.3126    0.6278 H         1 <0>         0.1305
     34 H4          4.0499    2.9437    0.5712 H         1 <0>         0.1347
     35 H5          1.7515   -0.4423   -0.6294 H         1 <0>         0.1371
     36 H6         -0.2944    0.9269   -0.5742 H         1 <0>         0.1318
     37 H7          6.4797   -0.1011    2.4820 H         1 <0>         0.0888
     38 H8          5.2701    1.2161    2.5615 H         1 <0>         0.0761
     39 H9          3.0471   -1.7625    1.7829 H         1 <0>         0.0784
     40 H10         4.5564   -2.5741    1.2788 H         1 <0>         0.0763
     41 H11         2.5081   -1.9147    4.0624 H         1 <0>         0.0877
     42 H12         3.1556   -3.5427    3.7498 H         1 <0>         0.0684
     43 H13         4.0060   -1.6839    6.0178 H         1 <0>         0.0594
     44 H14         2.9797   -3.1292    6.1821 H         1 <0>         0.0614
     45 H15         5.3274   -3.6447    6.7768 H         1 <0>         0.0617
     46 H16         4.8331   -4.5377    5.3190 H         1 <0>         0.0633
     47 H17         6.3956   -1.9158    5.3497 H         1 <0>         0.0612
     48 H18         7.0830   -3.5275    5.0344 H         1 <0>         0.0668
     49 H19         5.6104   -3.7809    3.0632 H         1 <0>         0.0742
     50 H20         6.6048   -2.3122    2.9165 H         1 <0>         0.0701
     51 H21         5.5493    0.6906    5.6516 H         1 <0>         0.0935
     52 H22         4.9613    2.3455    5.9568 H         1 <0>         0.0756
     53 H23         4.3662   -0.1399    7.6283 H         1 <0>         0.0785
     54 H24         5.3815    1.2430    8.1050 H         1 <0>         0.0866
     55 H25         3.4045    2.7428    7.9178 H         1 <0>         0.1015
     56 H26         1.9199    0.1350    7.3572 H         1 <0>         0.0753
     57 H27         1.1541    1.7180    7.6366 H         1 <0>         0.0798
     58 H28         2.2652    2.6535    5.6544 H         1 <0>         0.0702
     59 H29         1.4047    1.1641    5.1868 H         1 <0>         0.0974
     60 H30         1.4153    2.4817    9.7173 H         1 <0>         0.4014
     61 H31         1.9082    1.6896   11.1146 H         1 <0>         0.4029
@<TRIPOS>BOND
     1    1    6 ar
     2    1    2 ar
     3    1   32 1
     4    2    3 ar
     5    2   33 1
     6    3    4 ar
     7    3   34 1
     8    4    5 ar
     9    4    7 1
    10    5    6 ar
    11    5   35 1
    12    6   36 1
    13    7    8 2
    14    7    9 2
    15    7   10 1
    16   10   15 1
    17   10   11 1
    18   11   12 1
    19   11   37 1
    20   11   38 1
    21   12   13 1
    22   12   14 1
    23   12   21 1
    24   14   20 1
    25   14   15 1
    26   14   16 1
    27   15   39 1
    28   15   40 1
    29   16   17 1
    30   16   41 1
    31   16   42 1
    32   17   18 1
    33   17   43 1
    34   17   44 1
    35   18   19 1
    36   18   45 1
    37   18   46 1
    38   19   20 1
    39   19   47 1
    40   19   48 1
    41   20   49 1
    42   20   50 1
    43   21   22 2
    44   21   23 am
    45   23   28 1
    46   23   24 1
    47   24   25 1
    48   24   51 1
    49   24   52 1
    50   25   26 1
    51   25   53 1
    52   25   54 1
    53   26   27 1
    54   26   29 1
    55   26   55 1
    56   27   28 1
    57   27   56 1
    58   27   57 1
    59   28   58 1
    60   28   59 1
    61   29   30 2
    62   29   31 am
    63   31   60 1
    64   31   61 1
@<TRIPOS>MOLECULE
ZINC09904376
   46    48     0     0     0
SMALL
USER_CHARGES
3-[3-(5-methyl-2-furyl)prop-2-enoylamino]-4-pyrrolidin-1-yl-benzamide
@<TRIPOS>ATOM
      1 C1          0.0030    1.3252   -0.1273 C.3       1 <0>        -0.0810
      2 C2         -0.6803    2.2355    0.8604 C.2       1 <0>         0.0170
      3 C3         -0.0573    3.1013    1.6904 C.2       1 <0>        -0.2191
      4 C4         -1.0527    3.7500    2.4368 C.2       1 <0>        -0.1447
      5 C5         -2.2599    3.2340    2.0131 C.2       1 <0>        -0.0270
      6 O1         -2.0039    2.3210    1.0530 O.3       1 <0>        -0.1640
      7 C6         -3.5396    3.6006    2.4960 C.2       1 <0>         0.0349
      8 C7         -4.6505    3.0105    1.9886 C.2       1 <0>        -0.2265
      9 C8         -5.9295    3.3769    2.4711 C.2       1 <0>         0.5491
     10 O2         -6.0326    4.2221    3.3420 O.2       1 <0>        -0.5204
     11 N1         -7.0333    2.7906    1.9669 N.am      1 <0>        -0.6630
     12 C9         -8.2890    3.0665    2.5231 C.ar      1 <0>         0.1257
     13 C10        -8.3868    3.4862    3.8364 C.ar      1 <0>        -0.0477
     14 C11        -9.6416    3.7605    4.3876 C.ar      1 <0>        -0.1455
     15 C12       -10.7927    3.6095    3.6093 C.ar      1 <0>        -0.0770
     16 C13       -10.6910    3.1911    2.3012 C.ar      1 <0>        -0.1560
     17 C14        -9.4438    2.9232    1.7487 C.ar      1 <0>         0.1001
     18 N2         -9.3451    2.5059    0.4239 N.pl3     1 <0>        -0.4722
     19 C15       -10.6622    2.5844   -0.2584 C.3       1 <0>         0.0311
     20 C16       -10.2824    2.6109   -1.7602 C.3       1 <0>        -0.1249
     21 C17        -8.9978    3.4708   -1.7769 C.3       1 <0>        -0.1322
     22 C18        -8.4401    3.3885   -0.3439 C.3       1 <0>         0.0363
     23 C19        -9.7509    4.2082    5.7890 C.2       1 <0>         0.5651
     24 O3         -8.7489    4.3389    6.4654 O.2       1 <0>        -0.5348
     25 N3        -10.9613    4.4724    6.3196 N.am      1 <0>        -0.8526
     26 H1          0.2294    0.3730    0.3525 H         1 <0>         0.0872
     27 H2          0.9283    1.7890   -0.4690 H         1 <0>         0.0934
     28 H3         -0.6546    1.1552   -0.9798 H         1 <0>         0.0798
     29 H4          1.0079    3.2637    1.7651 H         1 <0>         0.1557
     30 H5         -0.9032    4.5049    3.1945 H         1 <0>         0.1593
     31 H6         -3.6311    4.3501    3.2682 H         1 <0>         0.1633
     32 H7         -4.5591    2.2611    1.2163 H         1 <0>         0.1323
     33 H8         -6.9583    2.1776    1.2190 H         1 <0>         0.4160
     34 H9         -7.4955    3.6024    4.4352 H         1 <0>         0.1637
     35 H10       -11.7628    3.8208    4.0343 H         1 <0>         0.1288
     36 H11       -11.5819    3.0751    1.7018 H         1 <0>         0.1396
     37 H12       -11.2667    1.7067   -0.0298 H         1 <0>         0.0925
     38 H13       -11.1868    3.4978    0.0220 H         1 <0>         0.0643
     39 H14       -11.0696    3.0820   -2.3489 H         1 <0>         0.0790
     40 H15       -10.0774    1.6041   -2.1241 H         1 <0>         0.0789
     41 H16        -9.2371    4.5034   -2.0310 H         1 <0>         0.0728
     42 H17        -8.2785    3.0626   -2.4868 H         1 <0>         0.0781
     43 H18        -8.4212    4.3816    0.1049 H         1 <0>         0.0575
     44 H19        -7.4346    2.9680   -0.3572 H         1 <0>         0.0820
     45 H20       -11.7606    4.3681    5.7800 H         1 <0>         0.3998
     46 H21       -11.0332    4.7668    7.2410 H         1 <0>         0.4055
@<TRIPOS>BOND
     1    1    2 1
     2    1   26 1
     3    1   27 1
     4    1   28 1
     5    2    6 1
     6    2    3 2
     7    3    4 1
     8    3   29 1
     9    4    5 2
    10    4   30 1
    11    5    6 1
    12    5    7 1
    13    7    8 2
    14    7   31 1
    15    8    9 1
    16    8   32 1
    17    9   10 2
    18    9   11 am
    19   11   12 1
    20   11   33 1
    21   12   17 ar
    22   12   13 ar
    23   13   14 ar
    24   13   34 1
    25   14   15 ar
    26   14   23 1
    27   15   16 ar
    28   15   35 1
    29   16   17 ar
    30   16   36 1
    31   17   18 1
    32   18   22 1
    33   18   19 1
    34   19   20 1
    35   19   37 1
    36   19   38 1
    37   20   21 1
    38   20   39 1
    39   20   40 1
    40   21   22 1
    41   21   41 1
    42   21   42 1
    43   22   43 1
    44   22   44 1
    45   23   24 2
    46   23   25 am
    47   25   45 1
    48   25   46 1
@<TRIPOS>MOLECULE
ZINC30640109
   42    45     0     0     0
SMALL
USER_CHARGES
2-(2-methyl-1H-indol-3-yl)-2-oxo-N-[3-(1H-pyrazol-5-yl)phenyl]acetamide
@<TRIPOS>ATOM
      1 C1          3.7946   -2.8094    2.7023 C.3       1 <0>        -0.1061
      2 C2          3.7814   -3.2637    1.2655 C.2       1 <0>         0.1473
      3 C3          3.7300   -2.4280    0.1659 C.2       1 <0>        -0.2649
      4 C4          3.7427   -3.3076   -1.0189 C.ar      1 <0>        -0.0588
      5 C5          3.7140   -3.0803   -2.3918 C.ar      1 <0>        -0.0834
      6 C6          3.7384   -4.1497   -3.2611 C.ar      1 <0>        -0.1302
      7 C7          3.7915   -5.4467   -2.7725 C.ar      1 <0>        -0.1027
      8 C8          3.8200   -5.6852   -1.4154 C.ar      1 <0>        -0.1190
      9 C9          3.7960   -4.6191   -0.5221 C.ar      1 <0>         0.0992
     10 N1          3.8143   -4.5450    0.8568 N.pl3     1 <0>        -0.5821
     11 H1          3.8501   -5.3577    1.5972 H         1 <0>         0.4477
     12 C10         3.6796   -0.9666    0.1747 C.2       1 <0>         0.4454
     13 O1          4.7092   -0.3232    0.2349 O.2       1 <0>        -0.4077
     14 C11         2.3654   -0.2656    0.1099 C.2       1 <0>         0.4803
     15 O2          1.3339   -0.9044    0.1530 O.2       1 <0>        -0.4800
     16 N2          2.3224    1.0773    0.0034 N.am      1 <0>        -0.6668
     17 C12         1.0945    1.7431    0.0509 C.ar      1 <0>         0.1538
     18 C13         0.9033    2.9029   -0.6917 C.ar      1 <0>        -0.1340
     19 C14        -0.3071    3.5679   -0.6429 C.ar      1 <0>        -0.0917
     20 C15        -1.3378    3.0787    0.1344 C.ar      1 <0>        -0.1051
     21 C16        -1.1557    1.9155    0.8832 C.ar      1 <0>        -0.0096
     22 C17         0.0669    1.2474    0.8390 C.ar      1 <0>        -0.1166
     23 C18        -2.2571    1.3930    1.7223 C.2       1 <0>         0.1128
     24 C19        -3.4987    1.9451    1.8642 C.2       1 <0>        -0.2539
     25 C20        -4.2276    1.1392    2.7390 C.2       1 <0>         0.0418
     26 N3         -3.4670    0.1456    3.1230 N.2       1 <0>        -0.2727
     27 N4         -2.2186    0.2752    2.5011 N.pl3     1 <0>        -0.4799
     28 H2         -1.3031   -0.3331    2.5453 H         1 <0>         0.4662
     29 H3          3.7604   -1.7106    2.7397 H         1 <0>         0.0810
     30 H4          4.7141   -3.1645    3.1907 H         1 <0>         0.0874
     31 H5          2.9190   -3.2216    3.2252 H         1 <0>         0.0870
     32 H6          3.6727   -2.0711   -2.7741 H         1 <0>         0.1191
     33 H7          3.7158   -3.9771   -4.3270 H         1 <0>         0.1272
     34 H8          3.8104   -6.2776   -3.4620 H         1 <0>         0.1293
     35 H9          3.8607   -6.6992   -1.0457 H         1 <0>         0.1239
     36 H10         3.2537    1.6493   -0.1209 H         1 <0>         0.4484
     37 H11         1.7046    3.2878   -1.3050 H         1 <0>         0.1324
     38 H12        -0.4486    4.4710   -1.2181 H         1 <0>         0.1360
     39 H13        -2.2838    3.5988    0.1663 H         1 <0>         0.1337
     40 H14         0.2134    0.3469    1.4169 H         1 <0>         0.1298
     41 H15        -3.8537    2.8442    1.3825 H         1 <0>         0.1490
     42 H16        -5.2474    1.3096    3.0513 H         1 <0>         0.1867
@<TRIPOS>BOND
     1    1    2 1
     2    1   29 1
     3    1   30 1
     4    1   31 1
     5    2   10 1
     6    2    3 2
     7    3    4 1
     8    3   12 1
     9    4    9 ar
    10    4    5 ar
    11    5    6 ar
    12    5   32 1
    13    6    7 ar
    14    6   33 1
    15    7    8 ar
    16    7   34 1
    17    8    9 ar
    18    8   35 1
    19    9   10 1
    20   10   11 1
    21   12   13 2
    22   12   14 1
    23   14   15 2
    24   14   16 am
    25   16   17 1
    26   16   36 1
    27   17   22 ar
    28   17   18 ar
    29   18   19 ar
    30   18   37 1
    31   19   20 ar
    32   19   38 1
    33   20   21 ar
    34   20   39 1
    35   21   22 ar
    36   21   23 1
    37   22   40 1
    38   23   27 1
    39   23   24 2
    40   24   25 1
    41   24   41 1
    42   25   26 2
    43   25   42 1
    44   26   27 1
    45   27   28 1
@<TRIPOS>MOLECULE
ZINC40686917
   56    59     0     0     0
SMALL
USER_CHARGES

@<TRIPOS>ATOM
      1 C1         -1.1839    2.2752   -2.0253 C.3       1 <0>        -0.1307
      2 C2         -1.3080    0.7895   -1.6537 C.3       1 <0>        -0.0713
      3 C3         -2.6083    0.1480   -2.2111 C.3       1 <0>        -0.1251
      4 C4         -2.2161   -1.3482   -2.1230 C.3       1 <0>         0.1555
      5 H1         -2.8513   -1.9714   -2.7657 H         1 <0>         0.0948
      6 C5         -2.3087   -1.7547   -0.6543 C.3       1 <0>        -0.1166
      7 C6         -1.4811   -0.8888    0.2780 C.3       1 <0>        -0.0502
      8 C7         -1.2984    0.5569   -0.1439 C.3       1 <0>        -0.0959
      9 C8         -0.1125   -1.5444    0.5162 C.3       1 <0>        -0.1407
     10 C9         -2.2036   -0.8766    1.6485 C.3       1 <0>        -0.1472
     11 N1         -0.8039   -1.3967   -2.5507 N.pl3     1 <0>        -0.5962
     12 C10        -0.2074   -0.0738   -2.3098 C.3       1 <0>         0.1290
     13 C11        -0.1519   -2.4961   -3.0961 C.ar      1 <0>         0.4445
     14 C12         1.1522   -2.3784   -3.5806 C.ar      1 <0>        -0.0323
     15 C13         1.7607   -3.5139   -4.1177 C.ar      1 <0>         0.4190
     16 N2          1.0798   -4.6572   -4.1475 N.ar      1 <0>        -0.5899
     17 C14        -0.1499   -4.7254   -3.6795 C.ar      1 <0>         0.3404
     18 N3         -0.7589   -3.6787   -3.1597 N.ar      1 <0>        -0.5872
     19 N4          3.0573   -3.4515   -4.6142 N.pl3     1 <0>        -0.7102
     20 C15         3.6852   -4.6503   -5.1755 C.3       1 <0>         0.1283
     21 C16         5.1008   -4.3114   -5.6468 C.3       1 <0>         0.0659
     22 H2          5.0690   -3.4669   -6.3351 H         1 <0>         0.0846
     23 C17         5.7262   -5.5360   -6.3487 C.3       1 <0>        -0.1471
     24 C18         7.1970   -5.4848   -5.8525 C.3       1 <0>        -0.1564
     25 C19         7.0042   -4.9332   -4.4175 C.3       1 <0>         0.0490
     26 O1          5.9240   -3.9890   -4.5198 O.3       1 <0>        -0.3762
     27 N5          1.8330   -1.1509   -3.5292 N.pl3     1 <0>        -0.8943
     28 H3         -0.2473    2.6709   -1.6323 H         1 <0>         0.0597
     29 H4         -1.1962    2.3806   -3.1101 H         1 <0>         0.0611
     30 H5         -2.0200    2.8279   -1.5969 H         1 <0>         0.0639
     31 H6         -3.4650    0.3734   -1.5764 H         1 <0>         0.0861
     32 H7         -2.7908    0.4525   -3.2411 H         1 <0>         0.0738
     33 H8         -3.3620   -1.7130   -0.3382 H         1 <0>         0.0665
     34 H9         -1.9900   -2.8017   -0.5492 H         1 <0>         0.0683
     35 H10        -0.3475    0.9309    0.2675 H         1 <0>         0.0614
     36 H11        -2.0945    1.1649    0.3144 H         1 <0>         0.0645
     37 H12         0.4092   -1.6520   -0.4347 H         1 <0>         0.0546
     38 H13         0.4781   -0.9194    1.1860 H         1 <0>         0.0498
     39 H14        -0.2537   -2.5270    0.9664 H         1 <0>         0.0511
     40 H15        -2.2744   -1.8948    2.0310 H         1 <0>         0.0538
     41 H16        -1.6397   -0.2629    2.3510 H         1 <0>         0.0528
     42 H17        -3.2049   -0.4634    1.5276 H         1 <0>         0.0541
     43 H18         0.0857    0.3711   -3.2658 H         1 <0>         0.0674
     44 H19         0.6630   -0.1496   -1.6664 H         1 <0>         0.0648
     45 H20        -0.6736   -5.6691   -3.7197 H         1 <0>         0.1909
     46 H21         3.5466   -2.6143   -4.5890 H         1 <0>         0.4080
     47 H22         3.7325   -5.4269   -4.4122 H         1 <0>         0.0683
     48 H23         3.0965   -5.0069   -6.0207 H         1 <0>         0.0740
     49 H24         5.2403   -6.4573   -6.0276 H         1 <0>         0.0834
     50 H25         5.6785   -5.4282   -7.4323 H         1 <0>         0.0863
     51 H26         7.6404   -6.4803   -5.8345 H         1 <0>         0.0859
     52 H27         7.7926   -4.8024   -6.4589 H         1 <0>         0.0794
     53 H28         6.7388   -5.7401   -3.7345 H         1 <0>         0.0617
     54 H29         7.9118   -4.4333   -4.0792 H         1 <0>         0.0862
     55 H30         1.7113   -0.5602   -2.7695 H         1 <0>         0.3933
     56 H31         2.4248   -0.8939   -4.2535 H         1 <0>         0.3854
@<TRIPOS>BOND
     1    1    2 1
     2    1   28 1
     3    1   29 1
     4    1   30 1
     5    2    8 1
     6    2   12 1
     7    2    3 1
     8    3    4 1
     9    3   31 1
    10    3   32 1
    11    4    5 1
    12    4    6 1
    13    4   11 1
    14    6    7 1
    15    6   33 1
    16    6   34 1
    17    7    8 1
    18    7    9 1
    19    7   10 1
    20    8   35 1
    21    8   36 1
    22    9   37 1
    23    9   38 1
    24    9   39 1
    25   10   40 1
    26   10   41 1
    27   10   42 1
    28   11   12 1
    29   11   13 1
    30   12   43 1
    31   12   44 1
    32   13   18 ar
    33   13   14 ar
    34   14   15 ar
    35   14   27 1
    36   15   16 ar
    37   15   19 1
    38   16   17 ar
    39   17   18 ar
    40   17   45 1
    41   19   20 1
    42   19   46 1
    43   20   21 1
    44   20   47 1
    45   20   48 1
    46   21   22 1
    47   21   26 1
    48   21   23 1
    49   23   24 1
    50   23   49 1
    51   23   50 1
    52   24   25 1
    53   24   51 1
    54   24   52 1
    55   25   26 1
    56   25   53 1
    57   25   54 1
    58   27   55 1
    59   27   56 1
@<TRIPOS>MOLECULE
ZINC15699539
   31    32     0     0     0
SMALL
USER_CHARGES

@<TRIPOS>ATOM
      1 C1         -0.0327    1.5195    0.0153 C.3       1 <0>        -0.1474
      2 C2         -0.0002   -0.0102    0.0033 C.3       1 <0>        -0.1214
      3 H1         -1.0199   -0.3953    0.0108 H         1 <0>         0.1308
      4 C3          0.7080   -0.4878   -1.2382 C.2       1 <0>         0.5437
      5 O1          1.8676   -0.8379   -1.1781 O.2       1 <0>        -0.4924
      6 N1          0.0527   -0.5260   -2.4153 N.am      1 <0>        -0.6632
      7 C4          0.7337   -0.8761   -3.5820 C.ar      1 <0>         0.1871
      8 C5          1.7438   -1.8320   -3.5354 C.ar      1 <0>        -0.1177
      9 C6          2.4186   -2.1802   -4.6836 C.ar      1 <0>        -0.0363
     10 C7          2.0880   -1.5725   -5.8985 C.ar      1 <0>        -0.0309
     11 C8          1.0718   -0.6122   -5.9422 C.ar      1 <0>         0.0241
     12 C9          0.3972   -0.2729   -4.7885 C.ar      1 <0>        -0.1351
     13 Cl1         0.6566    0.1466   -7.4473 Cl        1 <0>        -0.0410
     14 C10         2.7881   -1.9318   -7.0949 C.1       1 <0>         0.2470
     15 N2          3.3435   -2.2168   -8.0440 N.1       1 <0>        -0.3935
     16 S1          0.8827   -0.6078    1.4709 S.3       1 <0>         0.1236
     17 C11        -0.1352   -0.1007    2.8167 C.2       1 <0>         0.0255
     18 N3         -1.2801    0.5545    2.7984 N.2       1 <0>        -0.2728
     19 N4         -1.9170    0.8524    3.9809 N.2       1 <0>        -0.3749
     20 C12        -1.3805    0.4817    5.1269 C.2       1 <0>         0.3535
     21 S2          0.1030   -0.3433    4.5703 S.3       1 <0>         0.0088
     22 N5         -1.8472    0.6761    6.4216 N.pl3     1 <0>        -0.7880
     23 H2          0.9870    1.9046    0.0078 H         1 <0>         0.0777
     24 H3         -0.5633    1.8786   -0.8665 H         1 <0>         0.0769
     25 H4         -0.5449    1.8649    0.9133 H         1 <0>         0.0883
     26 H5         -0.8923   -0.3102   -2.4516 H         1 <0>         0.4209
     27 H6          1.9991   -2.3013   -2.5968 H         1 <0>         0.1582
     28 H7          3.2029   -2.9217   -4.6459 H         1 <0>         0.1500
     29 H8         -0.3904    0.4653   -4.8214 H         1 <0>         0.1506
     30 H9         -2.6831    1.1450    6.5706 H         1 <0>         0.4235
     31 H10        -1.3370    0.3427    7.1763 H         1 <0>         0.4241
@<TRIPOS>BOND
     1    1    2 1
     2    1   23 1
     3    1   24 1
     4    1   25 1
     5    2    3 1
     6    2    4 1
     7    2   16 1
     8    4    5 2
     9    4    6 am
    10    6    7 1
    11    6   26 1
    12    7   12 ar
    13    7    8 ar
    14    8    9 ar
    15    8   27 1
    16    9   10 ar
    17    9   28 1
    18   10   11 ar
    19   10   14 1
    20   11   12 ar
    21   11   13 1
    22   12   29 1
    23   14   15 3
    24   16   17 1
    25   17   21 1
    26   17   18 2
    27   18   19 1
    28   19   20 2
    29   20   21 1
    30   20   22 1
    31   22   30 1
    32   22   31 1
@<TRIPOS>MOLECULE
ZINC67575086
   48    49     0     0     0
SMALL
USER_CHARGES

@<TRIPOS>ATOM
      1 C1         -0.0188    1.5215    0.0207 C.3       1 <0>        -0.1615
      2 C2          0.0035   -0.0082    0.0019 C.3       1 <0>         0.1434
      3 H1          0.5120   -0.3532   -0.8984 H         1 <0>         0.1174
      4 C3          0.7357   -0.5149    1.2178 C.2       1 <0>         0.5154
      5 O1          0.1660   -1.2304    2.0143 O.2       1 <0>        -0.5297
      6 N1          2.0235   -0.1729    1.4200 N.am      1 <0>        -0.7167
      7 C4          2.7353   -0.6654    2.6019 C.3       1 <0>         0.1682
      8 C5          2.7576   -2.1952    2.5832 C.3       1 <0>        -0.1653
      9 C6          4.1701   -0.1343    2.5914 C.3       1 <0>        -0.1573
     10 C7          2.0215   -0.1813    3.8657 C.3       1 <0>        -0.1645
     11 N2         -1.3703   -0.5168    0.0120 N.am      1 <0>        -0.7231
     12 C8         -2.0514   -0.6413   -1.1444 C.2       1 <0>         0.7112
     13 O2         -1.5255   -0.3315   -2.1960 O.2       1 <0>        -0.5694
     14 N3         -3.3153   -1.1092   -1.1351 N.am      1 <0>        -0.6837
     15 C9         -4.0559   -1.1476   -2.3218 C.ar      1 <0>         0.1943
     16 C10        -3.4248   -1.4308   -3.5267 C.ar      1 <0>        -0.1316
     17 C11        -4.1554   -1.4687   -4.6984 C.ar      1 <0>        -0.0703
     18 C12        -5.5154   -1.2248   -4.6761 C.ar      1 <0>        -0.1558
     19 C13        -6.1519   -0.9412   -3.4751 C.ar      1 <0>         0.1607
     20 C14        -5.4222   -0.9084   -2.2957 C.ar      1 <0>        -0.1703
     21 N4         -7.5318   -0.6940   -3.4536 N.pl3     1 <0>        -0.3972
     22 C15        -8.2707   -0.3991   -2.3436 C.2       1 <0>        -0.0173
     23 C16        -9.5529   -0.2278   -2.7245 C.2       1 <0>        -0.1886
     24 C17        -9.6098   -0.4235   -4.1191 C.2       1 <0>        -0.1897
     25 C18        -8.3593   -0.7022   -4.5400 C.2       1 <0>        -0.0137
     26 H2          1.0034    1.8999    0.0131 H         1 <0>         0.0731
     27 H3         -0.5484    1.8879   -0.8588 H         1 <0>         0.0772
     28 H4         -0.5273    1.8664    0.9210 H         1 <0>         0.0646
     29 H5          2.4792    0.3993    0.7829 H         1 <0>         0.4024
     30 H6          3.2661   -2.5401    1.6829 H         1 <0>         0.0550
     31 H7          3.2872   -2.5616    3.4626 H         1 <0>         0.0653
     32 H8          1.7354   -2.5736    2.5907 H         1 <0>         0.0775
     33 H9          4.1542    0.9555    2.6047 H         1 <0>         0.0635
     34 H10         4.6997   -0.5007    3.4708 H         1 <0>         0.0760
     35 H11         4.6786   -0.4792    1.6911 H         1 <0>         0.0636
     36 H12         0.9993   -0.5597    3.8732 H         1 <0>         0.0774
     37 H13         2.5511   -0.5477    4.7451 H         1 <0>         0.0651
     38 H14         2.0056    0.9085    3.8790 H         1 <0>         0.0551
     39 H15        -1.7899   -0.7640    0.8510 H         1 <0>         0.4084
     40 H16        -3.7115   -1.4194   -0.3058 H         1 <0>         0.4105
     41 H17        -2.3619   -1.6211   -3.5472 H         1 <0>         0.1469
     42 H18        -3.6626   -1.6891   -5.6338 H         1 <0>         0.1367
     43 H19        -6.0838   -1.2545   -5.5940 H         1 <0>         0.1316
     44 H20        -5.9160   -0.6928   -1.3597 H         1 <0>         0.1328
     45 H21        -7.8934   -0.3175   -1.3349 H         1 <0>         0.1634
     46 H22       -10.3842    0.0144   -2.0789 H         1 <0>         0.1414
     47 H23       -10.4926   -0.3586   -4.7378 H         1 <0>         0.1419
     48 H24        -8.0637   -0.8999   -5.5598 H         1 <0>         0.1658
@<TRIPOS>BOND
     1    1    2 1
     2    1   26 1
     3    1   27 1
     4    1   28 1
     5    2    3 1
     6    2    4 1
     7    2   11 1
     8    4    5 2
     9    4    6 am
    10    6    7 1
    11    6   29 1
    12    7    8 1
    13    7    9 1
    14    7   10 1
    15    8   30 1
    16    8   31 1
    17    8   32 1
    18    9   33 1
    19    9   34 1
    20    9   35 1
    21   10   36 1
    22   10   37 1
    23   10   38 1
    24   11   12 am
    25   11   39 1
    26   12   13 2
    27   12   14 am
    28   14   15 1
    29   14   40 1
    30   15   20 ar
    31   15   16 ar
    32   16   17 ar
    33   16   41 1
    34   17   18 ar
    35   17   42 1
    36   18   19 ar
    37   18   43 1
    38   19   20 ar
    39   19   21 1
    40   20   44 1
    41   21   25 1
    42   21   22 1
    43   22   23 2
    44   22   45 1
    45   23   24 1
    46   23   46 1
    47   24   25 2
    48   24   47 1
    49   25   48 1
@<TRIPOS>MOLECULE
ZINC08791065
   63    68     0     0     0
SMALL
USER_CHARGES
3-(benzo[1,3]dioxol-5-ylmethyl-dimethyl-trioxo-BLAHyl)propanamide
@<TRIPOS>ATOM
      1 C1          3.7281   -0.6590   -0.0329 C.3       1 <0>        -0.1357
      2 C2          2.4044    0.0613   -0.0184 C.ar      1 <0>        -0.0079
      3 C3          2.3736    1.4440   -0.0117 C.ar      1 <0>        -0.1235
      4 C4          1.1583    2.1051    0.0023 C.ar      1 <0>        -0.0439
      5 C5         -0.0168    1.3875    0.0097 C.ar      1 <0>        -0.2066
      6 C6          0.0021   -0.0041    0.0020 C.ar      1 <0>         0.1745
      7 C7          1.2299   -0.6618   -0.0113 C.ar      1 <0>        -0.0888
      8 C8          1.2751   -2.1681   -0.0184 C.3       1 <0>        -0.1307
      9 N1         -1.3016   -0.5048    0.0085 N.am      1 <0>        -0.6382
     10 C9         -2.2231    0.4777    0.0216 C.2       1 <0>         0.5262
     11 O1         -3.4281    0.3403    0.0279 O.2       1 <0>        -0.4243
     12 C10        -1.4674    1.7782    0.0317 C.3       1 <0>         0.0943
     13 C11        -1.8039    2.6190    1.2695 C.3       1 <0>        -0.1187
     14 H1         -1.1228    2.4343    2.1002 H         1 <0>         0.1821
     15 C12        -1.7766    4.0880    0.7627 C.3       1 <0>        -0.1330
     16 H2         -1.0879    4.7167    1.3271 H         1 <0>         0.1850
     17 C13        -1.4142    3.9850   -0.7338 C.3       1 <0>         0.0417
     18 H3         -0.3417    4.1197   -0.8744 H         1 <0>         0.1723
     19 C14        -2.1908    5.0261   -1.5424 C.3       1 <0>        -0.1303
     20 C15        -1.7259    4.9906   -2.9997 C.3       1 <0>        -0.1577
     21 C16        -2.4908    6.0161   -3.7961 C.2       1 <0>         0.5135
     22 O2         -3.3257    6.7072   -3.2518 O.2       1 <0>        -0.5263
     23 N2         -2.2472    6.1652   -5.1133 N.am      1 <0>        -0.8513
     24 C17        -3.2148    4.5322    0.8998 C.2       1 <0>         0.5152
     25 O3         -3.6412    5.6276    0.6032 O.2       1 <0>        -0.4234
     26 N3         -3.9441    3.5278    1.3997 N.am      1 <0>        -0.5620
     27 C18        -3.2536    2.4087    1.6461 C.2       1 <0>         0.5131
     28 O4         -3.7177    1.3853    2.1009 O.2       1 <0>        -0.4145
     29 C19        -5.3816    3.6445    1.6570 C.3       1 <0>         0.1475
     30 C20        -5.6016    4.1428    3.0621 C.ar      1 <0>        -0.1250
     31 C21        -5.6818    5.5009    3.3076 C.ar      1 <0>        -0.0814
     32 C22        -5.8840    5.9629    4.5947 C.ar      1 <0>        -0.1031
     33 C23        -6.0064    5.0648    5.6425 C.ar      1 <0>         0.0527
     34 C24        -5.9256    3.6966    5.3952 C.ar      1 <0>         0.0310
     35 C25        -5.7285    3.2407    4.1018 C.ar      1 <0>        -0.0777
     36 O5         -6.0750    3.0301    6.5770 O.3       1 <0>        -0.3050
     37 C26        -5.8394    4.0112    7.6042 C.3       1 <0>         0.2122
     38 O6         -6.2064    5.2554    6.9793 O.3       1 <0>        -0.3035
     39 H4          4.0383   -0.8282   -1.0641 H         1 <0>         0.0890
     40 H5          4.4770   -0.0531    0.4770 H         1 <0>         0.0821
     41 H6          3.6263   -1.6165    0.4777 H         1 <0>         0.0831
     42 H7          3.2958    2.0062   -0.0178 H         1 <0>         0.1483
     43 H8          1.1313    3.1847    0.0068 H         1 <0>         0.1383
     44 H9          1.2773   -2.5266   -1.0477 H         1 <0>         0.0842
     45 H10         2.1799   -2.5068    0.4863 H         1 <0>         0.0886
     46 H11         0.4008   -2.5603    0.5011 H         1 <0>         0.0682
     47 H12        -1.5184   -1.4503    0.0044 H         1 <0>         0.4366
     48 H13        -3.2564    4.8016   -1.4955 H         1 <0>         0.1013
     49 H14        -2.0098    6.0175   -1.1273 H         1 <0>         0.1421
     50 H15        -0.6603    5.2151   -3.0466 H         1 <0>         0.1149
     51 H16        -1.9070    3.9992   -3.4148 H         1 <0>         0.0900
     52 H17        -1.5795    5.6124   -5.5486 H         1 <0>         0.4037
     53 H18        -2.7396    6.8252   -5.6259 H         1 <0>         0.4112
     54 H19        -5.8216    4.3470    0.9492 H         1 <0>         0.1173
     55 H20        -5.8520    2.6682    1.5399 H         1 <0>         0.1144
     56 H21        -5.5859    6.2025    2.4922 H         1 <0>         0.1444
     57 H22        -5.9462    7.0244    4.7837 H         1 <0>         0.1428
     58 H23        -5.6699    2.1801    3.9064 H         1 <0>         0.1392
     59 H24        -4.7875    4.0216    7.8898 H         1 <0>         0.0887
     60 H25        -6.4708    3.8171    8.4712 H         1 <0>         0.1385
     61 N4         -1.8065    2.6222   -1.1005 N.4       1 <0>        -0.4989
     62 H26        -2.8158    2.5808   -1.2844 H         1 <0>         0.4368
     63 H27        -1.2936    2.3180   -1.9363 H         1 <0>         0.4469
@<TRIPOS>BOND
     1    1    2 1
     2    1   39 1
     3    1   40 1
     4    1   41 1
     5    2    7 ar
     6    2    3 ar
     7    3    4 ar
     8    3   42 1
     9    4    5 ar
    10    4   43 1
    11    5   12 1
    12    5    6 ar
    13    6    7 ar
    14    6    9 1
    15    7    8 1
    16    8   44 1
    17    8   45 1
    18    8   46 1
    19    9   10 am
    20    9   47 1
    21   10   11 2
    22   10   12 1
    23   12   13 1
    24   12   61 1
    25   13   14 1
    26   13   27 1
    27   13   15 1
    28   15   16 1
    29   15   17 1
    30   15   24 1
    31   17   18 1
    32   17   19 1
    33   17   61 1
    34   19   20 1
    35   19   48 1
    36   19   49 1
    37   20   21 1
    38   20   50 1
    39   20   51 1
    40   21   22 2
    41   21   23 am
    42   23   52 1
    43   23   53 1
    44   24   25 2
    45   24   26 am
    46   26   27 am
    47   26   29 1
    48   27   28 2
    49   29   30 1
    50   29   54 1
    51   29   55 1
    52   30   35 ar
    53   30   31 ar
    54   31   32 ar
    55   31   56 1
    56   32   33 ar
    57   32   57 1
    58   33   38 1
    59   33   34 ar
    60   34   35 ar
    61   34   36 1
    62   35   58 1
    63   36   37 1
    64   37   38 1
    65   37   59 1
    66   37   60 1
    67   61   62 1
    68   61   63 1
@<TRIPOS>MOLECULE
ZINC15112228
   64    68     0     0     0
SMALL
USER_CHARGES
(2S,3S,4R,5S,6S)-2-[(3R)-3-[2-(1,3-benzodioxol-5-yl)-7-methoxy-benzofuran-5-yl]-3-hydroxy-propoxy]-6-(hydroxymethyl)tetrahydropyran-3,4,5-triol
@<TRIPOS>ATOM
      1 C1          9.3621   -2.2280   -5.9832 C.3       1 <0>         0.0244
      2 O1          9.5171   -1.2655   -7.0279 O.3       1 <0>        -0.3110
      3 C2          9.1034    0.0028   -6.7651 C.ar      1 <0>         0.1537
      4 C3          8.5608    0.3145   -5.5309 C.ar      1 <0>        -0.1827
      5 C4          8.1345    1.6042   -5.2515 C.ar      1 <0>        -0.0891
      6 C5          8.2396    2.5886   -6.1946 C.ar      1 <0>        -0.0946
      7 C6          8.7895    2.2967   -7.4446 C.ar      1 <0>        -0.0841
      8 C7          9.2238    0.9930   -7.7375 C.ar      1 <0>         0.0331
      9 O2          9.6985    0.9964   -9.0005 O.3       1 <0>        -0.1766
     10 C8          9.5992    2.2239   -9.5472 C.2       1 <0>         0.0906
     11 C9          9.0497    3.0814   -8.6539 C.2       1 <0>        -0.1881
     12 C10        10.0258    2.5813  -10.9162 C.ar      1 <0>        -0.0203
     13 C11         9.8740    3.8902  -11.3772 C.ar      1 <0>        -0.0777
     14 C12        10.2727    4.2218  -12.6551 C.ar      1 <0>        -0.0971
     15 C13        10.8247    3.2581  -13.4865 C.ar      1 <0>         0.0472
     16 C14        10.9790    1.9490  -13.0320 C.ar      1 <0>         0.0349
     17 C15        10.5868    1.6122  -11.7497 C.ar      1 <0>        -0.0768
     18 O3         11.5393    1.2043  -14.0299 O.3       1 <0>        -0.3051
     19 C16        12.1019    2.1574  -14.9508 C.3       1 <0>         0.2121
     20 O4         11.2885    3.3312  -14.7684 O.3       1 <0>        -0.3048
     21 C17         7.5456    1.9216   -3.9011 C.3       1 <0>         0.1560
     22 H1          7.5978    2.9960   -3.7254 H         1 <0>         0.1156
     23 C18         6.0847    1.4688   -3.8627 C.3       1 <0>        -0.1451
     24 C19         5.4511    1.9020   -2.5391 C.3       1 <0>         0.0657
     25 O5          4.0866    1.4791   -2.5032 O.3       1 <0>        -0.3664
     26 C20         3.3990    1.8357   -1.3023 C.3       1 <0>         0.2311
     27 H2          3.9929    1.5331   -0.4399 H         1 <0>         0.0611
     28 C21         2.0421    1.1279   -1.2616 C.3       1 <0>         0.0609
     29 H3          1.4635    1.3985   -2.1448 H         1 <0>         0.0886
     30 C22         1.2864    1.5618   -0.0018 C.3       1 <0>         0.0849
     31 H4          1.8400    1.2460    0.8824 H         1 <0>         0.0746
     32 C23         1.1466    3.0871   -0.0035 C.3       1 <0>         0.0875
     33 H5          0.6586    3.4092    0.9164 H         1 <0>         0.0853
     34 C24         2.5380    3.7192   -0.0928 C.3       1 <0>         0.1106
     35 H6          3.1206    3.4414    0.7856 H         1 <0>         0.0843
     36 O6          3.1981    3.2502   -1.2703 O.3       1 <0>        -0.3744
     37 C25         2.4039    5.2421   -0.1554 C.3       1 <0>         0.0887
     38 O7          3.7030    5.8364   -0.1226 O.3       1 <0>        -0.5681
     39 O8          0.3642    3.4938   -1.1281 O.3       1 <0>        -0.5457
     40 O9         -0.0110    0.9628    0.0073 O.3       1 <0>        -0.5560
     41 O10         2.2420   -0.2868   -1.2351 O.3       1 <0>        -0.5603
     42 O11         8.2834    1.2367   -2.8869 O.3       1 <0>        -0.5501
     43 H7          9.9300   -1.9100   -5.1088 H         1 <0>         0.0597
     44 H8          8.3076   -2.3125   -5.7205 H         1 <0>         0.0585
     45 H9          9.7304   -3.1959   -6.3233 H         1 <0>         0.1048
     46 H10         8.4681   -0.4542   -4.7780 H         1 <0>         0.1386
     47 H11         7.9019    3.5900   -5.9720 H         1 <0>         0.1349
     48 H12         8.8449    4.1312   -8.8031 H         1 <0>         0.1672
     49 H13         9.4440    4.6430  -10.7332 H         1 <0>         0.1482
     50 H14        10.1544    5.2350  -13.0100 H         1 <0>         0.1465
     51 H15        10.7099    0.5995  -11.3950 H         1 <0>         0.1442
     52 H16        13.1408    2.3681  -14.6968 H         1 <0>         0.0886
     53 H17        12.0235    1.7925  -15.9750 H         1 <0>         0.1360
     54 H18         6.0383    0.3833   -3.9496 H         1 <0>         0.0761
     55 H19         5.5415    1.9232   -4.6913 H         1 <0>         0.0866
     56 H20         5.4975    2.9875   -2.4522 H         1 <0>         0.0650
     57 H21         5.9943    1.4476   -1.7105 H         1 <0>         0.0592
     58 H22         1.8983    5.5246   -1.0788 H         1 <0>         0.0692
     59 H23         1.8230    5.5910    0.6983 H         1 <0>         0.0652
     60 H24         3.6945    6.8027   -0.1590 H         1 <0>         0.3847
     61 H25        -0.5299    3.1257   -1.1389 H         1 <0>         0.3887
     62 H26         0.0021   -0.0041    0.0020 H         1 <0>         0.3951
     63 H27         2.7157   -0.6315   -2.0045 H         1 <0>         0.3930
     64 H28         8.2804    0.2742   -2.9804 H         1 <0>         0.3733
@<TRIPOS>BOND
     1    1    2 1
     2    1   43 1
     3    1   44 1
     4    1   45 1
     5    2    3 1
     6    3    8 ar
     7    3    4 ar
     8    4    5 ar
     9    4   46 1
    10    5    6 ar
    11    5   21 1
    12    6    7 ar
    13    6   47 1
    14    7   11 1
    15    7    8 ar
    16    8    9 1
    17    9   10 1
    18   10   11 2
    19   10   12 1
    20   11   48 1
    21   12   17 ar
    22   12   13 ar
    23   13   14 ar
    24   13   49 1
    25   14   15 ar
    26   14   50 1
    27   15   20 1
    28   15   16 ar
    29   16   17 ar
    30   16   18 1
    31   17   51 1
    32   18   19 1
    33   19   20 1
    34   19   52 1
    35   19   53 1
    36   21   22 1
    37   21   23 1
    38   21   42 1
    39   23   24 1
    40   23   54 1
    41   23   55 1
    42   24   25 1
    43   24   56 1
    44   24   57 1
    45   25   26 1
    46   26   27 1
    47   26   36 1
    48   26   28 1
    49   28   29 1
    50   28   30 1
    51   28   41 1
    52   30   31 1
    53   30   32 1
    54   30   40 1
    55   32   33 1
    56   32   34 1
    57   32   39 1
    58   34   35 1
    59   34   36 1
    60   34   37 1
    61   37   38 1
    62   37   58 1
    63   37   59 1
    64   38   60 1
    65   39   61 1
    66   40   62 1
    67   41   63 1
    68   42   64 1
@<TRIPOS>MOLECULE
ZINC35806151
   72    75     0     0     0
SMALL
USER_CHARGES

@<TRIPOS>ATOM
      1 C1         -0.0187    1.5304    0.0105 C.3       1 <0>        -0.1539
      2 C2          0.0021   -0.0041    0.0020 C.3       1 <0>        -0.0199
      3 C3         -1.4616   -0.3916    0.1258 C.3       1 <0>        -0.1117
      4 C4         -1.7034   -1.6095    1.0073 C.3       1 <0>        -0.1667
      5 C5         -1.0167   -1.3893    2.3404 C.2       1 <0>         0.3889
      6 O1         -1.5956   -1.5378    3.3965 O.2       1 <0>        -0.4552
      7 C6          0.3904   -0.9808    2.2725 C.2       1 <0>        -0.2392
      8 C7          0.8467   -0.3927    1.1746 C.2       1 <0>        -0.0188
      9 C8          2.3403   -0.1219    1.0719 C.3       1 <0>        -0.0991
     10 C9          2.8160   -0.9256   -0.1437 C.3       1 <0>        -0.1114
     11 C10         2.1100   -0.4383   -1.4069 C.3       1 <0>        -0.0629
     12 H1          2.4145   -1.1603   -2.1941 H         1 <0>         0.0792
     13 C11         0.5932   -0.4858   -1.3098 C.3       1 <0>        -0.0525
     14 H2          0.3306   -1.5818   -1.3593 H         1 <0>         0.0790
     15 C12        -0.1145    0.1319   -2.5067 C.3       1 <0>         0.1232
     16 H3         -1.1492    0.3791   -2.2026 H         1 <0>         0.0536
     17 C13         0.5056    1.4027   -3.0811 C.3       1 <0>        -0.1446
     18 C14         2.0030    1.3011   -3.1893 C.3       1 <0>        -0.0228
     19 C15         2.5887    0.9317   -1.8071 C.3       1 <0>        -0.0900
     20 H4          2.3000    1.6746   -1.0560 H         1 <0>         0.0952
     21 C16         4.0985    1.0762   -2.0579 C.3       1 <0>        -0.1164
     22 C17         4.1869    2.3559   -2.9313 C.3       1 <0>        -0.1422
     23 C18         2.7759    2.5788   -3.5359 C.3       1 <0>         0.1040
     24 C19         2.1430    3.8009   -2.9346 C.2       1 <0>         0.3378
     25 O2          1.5334    3.7160   -1.8956 O.2       1 <0>        -0.3948
     26 C20         2.2685    5.1330   -3.6278 C.3       1 <0>         0.0056
     27 O3          1.5878    6.1324   -2.8663 O.3       1 <0>        -0.3075
     28 C21         1.6046    7.3842   -3.3504 C.2       1 <0>         0.4620
     29 O4          2.1783    7.6236   -4.3865 O.2       1 <0>        -0.4922
     30 C22         0.9079    8.4911   -2.6017 C.3       1 <0>         0.0375
     31 H5         -0.0371    8.1216   -2.2035 H         1 <0>         0.1774
     32 C23         1.7962    8.9654   -1.4499 C.3       1 <0>        -0.1165
     33 C24         1.0395   10.0006   -0.6152 C.3       1 <0>        -0.1996
     34 C25         1.9144   10.4679    0.5193 C.2       1 <0>         0.4893
     35 O5          3.0390   10.0148    0.6484 O.co2     1 <0>        -0.6861
     36 O6          1.4977   11.2989    1.3082 O.co2     1 <0>        -0.6813
     37 N1          0.6494    9.6125   -3.5147 N.4       1 <0>        -0.6217
     38 O7          2.8686    2.7148   -4.9568 O.3       1 <0>        -0.5344
     39 C26         2.3759    0.2544   -4.2488 C.3       1 <0>        -0.1346
     40 O8         -0.2404   -0.8573   -3.5377 O.3       1 <0>        -0.5671
     41 H6          1.0037    1.9078   -0.0058 H         1 <0>         0.0710
     42 H7         -0.5533    1.8914   -0.8682 H         1 <0>         0.0647
     43 H8         -0.5215    1.8820    0.9114 H         1 <0>         0.0570
     44 H9         -2.0057    0.4607    0.5347 H         1 <0>         0.0743
     45 H10        -1.8478   -0.6036   -0.8726 H         1 <0>         0.0822
     46 H11        -2.7761   -1.7445    1.1681 H         1 <0>         0.0921
     47 H12        -1.2978   -2.5041    0.5294 H         1 <0>         0.0991
     48 H13         1.0500   -1.1569    3.1119 H         1 <0>         0.1374
     49 H14         2.5331    0.9353    0.9289 H         1 <0>         0.0849
     50 H15         2.8426   -0.4792    1.9704 H         1 <0>         0.0790
     51 H16         3.8912   -0.8034   -0.2616 H         1 <0>         0.0757
     52 H17         2.5860   -1.9800    0.0094 H         1 <0>         0.0691
     53 H18         0.0921    1.5680   -4.0934 H         1 <0>         0.0631
     54 H19         0.2031    2.2631   -2.4810 H         1 <0>         0.0883
     55 H20         4.6233    1.2234   -1.1105 H         1 <0>         0.0736
     56 H21         4.4985    0.2102   -2.5777 H         1 <0>         0.0787
     57 H22         4.4631    3.2113   -2.3124 H         1 <0>         0.0720
     58 H23         4.9188    2.2211   -3.7270 H         1 <0>         0.0924
     59 H24         3.3220    5.3987   -3.7164 H         1 <0>         0.1130
     60 H25         1.8252    5.0687   -4.6215 H         1 <0>         0.1157
     61 H26         2.0609    8.1152   -0.8213 H         1 <0>         0.1233
     62 H27         2.7033    9.4161   -1.8524 H         1 <0>         0.0980
     63 H28         0.7747   10.8509   -1.2438 H         1 <0>         0.0572
     64 H29         0.1323    9.5499   -0.2127 H         1 <0>         0.0794
     65 H30         0.0636    9.2997   -4.2743 H         1 <0>         0.4341
     66 H31         0.1829   10.3536   -3.0134 H         1 <0>         0.4497
     67 H32         3.3466    3.5041   -5.2460 H         1 <0>         0.3751
     68 H33         1.9528    0.5443   -5.2106 H         1 <0>         0.0610
     69 H34         3.4609    0.1930   -4.3328 H         1 <0>         0.0556
     70 H35         1.9786   -0.7172   -3.9552 H         1 <0>         0.0751
     71 H36        -0.6828   -0.5388   -4.3364 H         1 <0>         0.3771
     72 H37         1.5242    9.9546   -3.8833 H         1 <0>         0.4416
@<TRIPOS>BOND
     1    1    2 1
     2    1   41 1
     3    1   42 1
     4    1   43 1
     5    2    8 1
     6    2   13 1
     7    2    3 1
     8    3    4 1
     9    3   44 1
    10    3   45 1
    11    4    5 1
    12    4   46 1
    13    4   47 1
    14    5    6 2
    15    5    7 1
    16    7    8 2
    17    7   48 1
    18    8    9 1
    19    9   10 1
    20    9   49 1
    21    9   50 1
    22   10   11 1
    23   10   51 1
    24   10   52 1
    25   11   12 1
    26   11   19 1
    27   11   13 1
    28   13   14 1
    29   13   15 1
    30   15   16 1
    31   15   17 1
    32   15   40 1
    33   17   18 1
    34   17   53 1
    35   17   54 1
    36   18   23 1
    37   18   19 1
    38   18   39 1
    39   19   20 1
    40   19   21 1
    41   21   22 1
    42   21   55 1
    43   21   56 1
    44   22   23 1
    45   22   57 1
    46   22   58 1
    47   23   24 1
    48   23   38 1
    49   24   25 2
    50   24   26 1
    51   26   27 1
    52   26   59 1
    53   26   60 1
    54   27   28 1
    55   28   29 2
    56   28   30 1
    57   30   31 1
    58   30   32 1
    59   30   37 1
    60   32   33 1
    61   32   61 1
    62   32   62 1
    63   33   34 1
    64   33   63 1
    65   33   64 1
    66   34   35 2
    67   34   36 1
    68   37   65 1
    69   37   66 1
    70   37   72 1
    71   38   67 1
    72   39   68 1
    73   39   69 1
    74   39   70 1
    75   40   71 1
@<TRIPOS>MOLECULE
ZINC33877273
   66    69     0     0     0
SMALL
USER_CHARGES

@<TRIPOS>ATOM
      1 C1         -0.0167    1.3770    0.0096 C.ar      1 <0>        -0.0595
      2 C2          1.1707    2.0858    0.0021 C.ar      1 <0>        -0.1330
      3 C3          2.3791    1.4145   -0.0130 C.ar      1 <0>        -0.0968
      4 C4          2.4032    0.0331   -0.0211 C.ar      1 <0>        -0.0860
      5 C5          1.2136   -0.6802   -0.0135 C.ar      1 <0>         0.1157
      6 C6          0.0021   -0.0041    0.0020 C.ar      1 <0>        -0.1688
      7 O1          1.2347   -2.0390   -0.0215 O.3       1 <0>        -0.3071
      8 C7         -0.0283   -2.7075   -0.0130 C.3       1 <0>         0.6051
      9 F1         -0.7600   -2.3363   -1.1461 F         1 <0>        -0.1614
     10 F2          0.1765   -4.0914   -0.0228 F         1 <0>        -0.1255
     11 F3         -0.7378   -2.3493    1.1383 F         1 <0>        -0.1626
     12 C8          3.6712    2.1901   -0.0212 C.3       1 <0>         0.1137
     13 H1          4.4948    1.5675    0.3283 H         1 <0>         0.1572
     14 C9          3.9627    2.7372   -1.4150 C.3       1 <0>        -0.1497
     15 H2          3.0758    3.1492   -1.8963 H         1 <0>         0.1636
     16 C10         5.0138    3.8280   -0.9813 C.3       1 <0>        -0.1425
     17 H3          5.7802    3.2501   -0.4649 H         1 <0>         0.1074
     18 C11         5.6680    4.1274   -2.2323 C.2       1 <0>         0.5750
     19 O2          6.1160    5.1940   -2.5944 O.2       1 <0>        -0.4093
     20 N1          5.6729    2.9408   -2.9227 N.am      1 <0>        -0.5935
     21 C12         4.8395    1.9903   -2.3699 C.2       1 <0>         0.5621
     22 O3          4.8200    0.8000   -2.5987 O.2       1 <0>        -0.4384
     23 C13         6.4688    2.7085   -4.1305 C.3       1 <0>         0.1369
     24 C14         5.5391    2.3606   -5.2948 C.3       1 <0>        -0.1334
     25 C15         6.3704    2.1179   -6.5562 C.3       1 <0>        -0.1151
     26 C16         7.3393    0.9590   -6.3134 C.3       1 <0>        -0.1237
     27 C17         8.2689    1.3069   -5.1491 C.3       1 <0>        -0.1156
     28 C18         7.4377    1.5495   -3.8877 C.3       1 <0>        -0.1330
     29 C19         4.3538    4.5140    0.1365 C.3       1 <0>         0.0268
     30 N2          3.5511    3.4286    0.8155 N.4       1 <0>        -0.5092
     31 C20         5.3945    5.0733    1.1086 C.3       1 <0>        -0.1153
     32 C21         4.6860    5.6728    2.3249 C.3       1 <0>        -0.1413
     33 C22         5.7267    6.2322    3.2970 C.3       1 <0>         0.1394
     34 N3          5.0483    6.8062    4.4616 N.am      1 <0>        -0.7469
     35 C23         5.7694    7.3612    5.4558 C.2       1 <0>         0.7050
     36 O4          6.9830    7.3854    5.3861 O.2       1 <0>        -0.5923
     37 N4          5.1453    7.8893    6.5273 N.am      1 <0>        -0.8670
     38 C24         3.4646    5.6177   -0.3756 C.2       1 <0>         0.5049
     39 O5          2.2686    5.5961   -0.1394 O.co2     1 <0>        -0.6638
     40 O6          3.9411    6.5322   -1.0261 O.co2     1 <0>        -0.6007
     41 H4         -0.9594    1.9037    0.0259 H         1 <0>         0.1484
     42 H5          1.1540    3.1657    0.0076 H         1 <0>         0.1486
     43 H6          3.3475   -0.4909   -0.0336 H         1 <0>         0.1506
     44 H7         -0.9255   -0.5572    0.0082 H         1 <0>         0.1431
     45 H8          7.0330    3.6091   -4.3727 H         1 <0>         0.1082
     46 H9          4.9749    1.4599   -5.0527 H         1 <0>         0.0733
     47 H10         4.8489    3.1862   -5.4678 H         1 <0>         0.0707
     48 H11         5.7081    1.8700   -7.3857 H         1 <0>         0.0709
     49 H12         6.9346    3.0185   -6.7984 H         1 <0>         0.0679
     50 H13         6.7751    0.0583   -6.0712 H         1 <0>         0.0649
     51 H14         7.9315    0.7861   -7.2120 H         1 <0>         0.0676
     52 H15         8.9592    0.4812   -4.9761 H         1 <0>         0.0703
     53 H16         8.8331    2.2075   -5.3912 H         1 <0>         0.0666
     54 H17         8.1000    1.7974   -3.0582 H         1 <0>         0.0662
     55 H18         6.8735    0.6489   -3.6455 H         1 <0>         0.0822
     56 H19         2.5844    3.7127    0.8698 H         1 <0>         0.4349
     57 H20         6.0569    4.2708    1.4330 H         1 <0>         0.0834
     58 H21         5.9783    5.8472    0.6101 H         1 <0>         0.1246
     59 H22         4.0235    6.4753    2.0005 H         1 <0>         0.0958
     60 H23         4.1022    4.8990    2.8233 H         1 <0>         0.0609
     61 H24         6.3891    5.4297    3.6214 H         1 <0>         0.0695
     62 H25         6.3105    7.0061    2.7985 H         1 <0>         0.0759
     63 H26         4.0801    6.7869    4.5172 H         1 <0>         0.3981
     64 H27         4.1771    7.8700    6.5829 H         1 <0>         0.3975
     65 H28         5.6643    8.2887    7.2428 H         1 <0>         0.4166
     66 H29         3.9101    3.2521    1.7418 H         1 <0>         0.4220
@<TRIPOS>BOND
     1    1    6 ar
     2    1    2 ar
     3    1   41 1
     4    2    3 ar
     5    2   42 1
     6    3    4 ar
     7    3   12 1
     8    4    5 ar
     9    4   43 1
    10    5    6 ar
    11    5    7 1
    12    6   44 1
    13    7    8 1
    14    8    9 1
    15    8   10 1
    16    8   11 1
    17   12   13 1
    18   12   30 1
    19   12   14 1
    20   14   15 1
    21   14   21 1
    22   14   16 1
    23   16   17 1
    24   16   18 1
    25   16   29 1
    26   18   19 2
    27   18   20 am
    28   20   21 am
    29   20   23 1
    30   21   22 2
    31   23   28 1
    32   23   24 1
    33   23   45 1
    34   24   25 1
    35   24   46 1
    36   24   47 1
    37   25   26 1
    38   25   48 1
    39   25   49 1
    40   26   27 1
    41   26   50 1
    42   26   51 1
    43   27   28 1
    44   27   52 1
    45   27   53 1
    46   28   54 1
    47   28   55 1
    48   29   30 1
    49   29   31 1
    50   29   38 1
    51   30   56 1
    52   30   66 1
    53   31   32 1
    54   31   57 1
    55   31   58 1
    56   32   33 1
    57   32   59 1
    58   32   60 1
    59   33   34 1
    60   33   61 1
    61   33   62 1
    62   34   35 am
    63   34   63 1
    64   35   36 2
    65   35   37 am
    66   37   64 1
    67   37   65 1
    68   38   39 2
    69   38   40 1
@<TRIPOS>MOLECULE
ZINC65740517
   65    67     0     0     0
SMALL
USER_CHARGES

@<TRIPOS>ATOM
      1 C1          0.5591    1.9650    0.2923 C.3       1 <0>        -0.1365
      2 C2          0.5715    0.4428    0.1389 C.3       1 <0>        -0.0987
      3 H1         -0.4467    0.0835   -0.0103 H         1 <0>         0.1073
      4 C3          1.4325    0.0568   -1.0678 C.3       1 <0>         0.1226
      5 H2          2.4376    0.4596   -0.9423 H         1 <0>         0.0701
      6 C4          1.5008   -1.4703   -1.1647 C.3       1 <0>         0.0433
      7 H3          2.1567   -1.7541   -1.9878 H         1 <0>         0.0719
      8 C5          2.0537   -2.0330    0.1473 C.3       1 <0>         0.0722
      9 H4          3.0683   -1.6656    0.3014 H         1 <0>         0.0741
     10 O1          1.2243   -1.6113    1.2319 O.3       1 <0>        -0.3805
     11 C6          1.1588   -0.1938    1.4012 C.3       1 <0>         0.2626
     12 H5          2.1615    0.1975    1.5729 H         1 <0>         0.0485
     13 O2          0.3279    0.1157    2.5219 O.3       1 <0>        -0.3033
     14 C7          0.8989   -0.2363    3.7836 C.3       1 <0>         0.0869
     15 H6          1.5529   -1.0995    3.6598 H         1 <0>         0.0959
     16 C8         -0.2183   -0.5779    4.7743 C.3       1 <0>         0.1401
     17 H7         -0.7632   -1.4534    4.4210 H         1 <0>         0.1172
     18 C9          0.3980   -0.8770    6.1434 C.3       1 <0>         0.2496
     19 H8          1.0495   -1.7476    6.0664 H         1 <0>         0.0853
     20 O3          1.1597    0.2512    6.5781 O.3       1 <0>        -0.3727
     21 C10         2.2478    0.5882    5.7151 C.3       1 <0>         0.0688
     22 H9          2.9234   -0.2632    5.6325 H         1 <0>         0.0819
     23 C11         1.7076    0.9454    4.3277 C.3       1 <0>         0.0586
     24 H10         2.5387    1.1583    3.6555 H         1 <0>         0.0740
     25 O4          0.8651    2.0953    4.4267 O.3       1 <0>        -0.5289
     26 C12         3.0047    1.7861    6.2922 C.3       1 <0>         0.0830
     27 O5          3.6077    1.4154    7.5335 O.3       1 <0>        -0.5615
     28 O6         -0.6422   -1.1421    7.0866 O.3       1 <0>        -0.2714
     29 C13        -0.2614   -1.5300    8.3322 C.ar      1 <0>         0.1807
     30 C14         1.0858   -1.6474    8.6419 C.ar      1 <0>        -0.1851
     31 C15         1.4703   -2.0414    9.9089 C.ar      1 <0>        -0.0135
     32 C16         0.5138   -2.3187   10.8680 C.ar      1 <0>        -0.0860
     33 C17        -0.8295   -2.2028   10.5617 C.ar      1 <0>        -0.0175
     34 C18        -1.2191   -1.8037    9.2979 C.ar      1 <0>        -0.1453
     35 N1          0.9285   -2.7406   12.2247 N.pl3     1 <0>         0.0393
     36 O7          2.1028   -2.8426   12.4934 O.2       1 <0>        -0.1632
     37 O8          0.0930   -2.9833   13.0641 O.3       1 <0>        -0.1619
     38 N2         -1.1368    0.5578    4.8871 N.am      1 <0>        -0.6944
     39 C19        -2.1876    0.6604    4.0494 C.2       1 <0>         0.5193
     40 O9         -2.3728   -0.1874    3.2022 O.2       1 <0>        -0.5338
     41 C20        -3.1324    1.8288    4.1654 C.3       1 <0>        -0.1661
     42 C21         2.0691   -3.5614    0.0807 C.3       1 <0>         0.0800
     43 O10         2.6919   -4.0832    1.2563 O.3       1 <0>        -0.5636
     44 O11         0.1912   -1.9932   -1.3957 O.3       1 <0>        -0.5345
     45 O12         0.8502    0.5877   -2.2599 O.3       1 <0>        -0.5424
     46 H11         1.5776    2.3235    0.4414 H         1 <0>         0.0470
     47 H12         0.1429    2.4175   -0.6078 H         1 <0>         0.0673
     48 H13        -0.0519    2.2386    1.1524 H         1 <0>         0.0691
     49 H14         1.3126    2.8829    4.7651 H         1 <0>         0.3728
     50 H15         3.7787    2.0988    5.5913 H         1 <0>         0.0676
     51 H16         2.3099    2.6096    6.4573 H         1 <0>         0.0620
     52 H17         4.1054    2.1280    7.9573 H         1 <0>         0.3873
     53 H18         1.8334   -1.4313    7.8930 H         1 <0>         0.1530
     54 H19         2.5190   -2.1333   10.1504 H         1 <0>         0.1562
     55 H20        -1.5748   -2.4203   11.3125 H         1 <0>         0.1612
     56 H21        -2.2684   -1.7091    9.0604 H         1 <0>         0.1564
     57 H22        -0.9887    1.2359    5.5646 H         1 <0>         0.4070
     58 H23        -2.8070    2.4800    4.9766 H         1 <0>         0.0718
     59 H24        -3.1356    2.3878    3.2296 H         1 <0>         0.0921
     60 H25        -4.1380    1.4635    4.3738 H         1 <0>         0.0900
     61 H26         1.0463   -3.9326    0.0162 H         1 <0>         0.0614
     62 H27         2.6279   -3.8812   -0.7989 H         1 <0>         0.0652
     63 H28         2.7367   -5.0488    1.2821 H         1 <0>         0.3852
     64 H29         0.1596   -2.9570   -1.4680 H         1 <0>         0.3753
     65 H30         1.3446    0.3811   -3.0648 H         1 <0>         0.3799
@<TRIPOS>BOND
     1    1    2 1
     2    1   46 1
     3    1   47 1
     4    1   48 1
     5    2    3 1
     6    2   11 1
     7    2    4 1
     8    4    5 1
     9    4    6 1
    10    4   45 1
    11    6    7 1
    12    6    8 1
    13    6   44 1
    14    8    9 1
    15    8   10 1
    16    8   42 1
    17   10   11 1
    18   11   12 1
    19   11   13 1
    20   13   14 1
    21   14   15 1
    22   14   23 1
    23   14   16 1
    24   16   17 1
    25   16   18 1
    26   16   38 1
    27   18   19 1
    28   18   20 1
    29   18   28 1
    30   20   21 1
    31   21   22 1
    32   21   23 1
    33   21   26 1
    34   23   24 1
    35   23   25 1
    36   25   49 1
    37   26   27 1
    38   26   50 1
    39   26   51 1
    40   27   52 1
    41   28   29 1
    42   29   34 ar
    43   29   30 ar
    44   30   31 ar
    45   30   53 1
    46   31   32 ar
    47   31   54 1
    48   32   33 ar
    49   32   35 1
    50   33   34 ar
    51   33   55 1
    52   34   56 1
    53   35   36 2
    54   35   37 1
    55   38   39 am
    56   38   57 1
    57   39   40 2
    58   39   41 1
    59   41   58 1
    60   41   59 1
    61   41   60 1
    62   42   43 1
    63   42   61 1
    64   42   62 1
    65   43   63 1
    66   44   64 1
    67   45   65 1
@<TRIPOS>MOLECULE
ZINC37560084
   29    30     0     0     0
SMALL
USER_CHARGES

@<TRIPOS>ATOM
      1 C1         -3.3573   -6.9240    1.3122 C.3       1 <0>         0.1024
      2 N1         -2.3594   -5.9246    0.9229 N.pl3     1 <0>        -0.3639
      3 C2         -1.9492   -5.6626   -0.3359 C.2       1 <0>         0.0792
      4 C3         -1.0242   -4.6778   -0.2742 C.2       1 <0>        -0.2812
      5 C4         -0.8619   -4.3231    1.0748 C.2       1 <0>         0.3110
      6 N2         -1.6688   -5.0698    1.7914 N.2       1 <0>        -0.3137
      7 N3          0.0049   -3.3409    1.5684 N.pl3     1 <0>        -1.0119
      8 S1         -0.0192   -2.9478    3.1769 S.o2      1 <0>         2.6935
      9 O1          0.0575   -4.1714    3.8953 O.2       1 <0>        -0.9261
     10 O2          0.9248   -1.9004    3.3531 O.2       1 <0>        -0.9380
     11 C5         -1.6045   -2.2601    3.5213 C.ar      1 <0>        -0.6558
     12 C6         -2.4681   -2.9124    4.3798 C.ar      1 <0>        -0.0576
     13 C7         -3.7172   -2.3700    4.6509 C.ar      1 <0>         0.1901
     14 C8         -4.0955   -1.1722    4.0579 C.ar      1 <0>        -0.1169
     15 C9         -3.2290   -0.5236    3.2003 C.ar      1 <0>        -0.1210
     16 C10        -1.9814   -1.0635    2.9358 C.ar      1 <0>         0.1329
     17 F1         -1.1330   -0.4242    2.1012 F         1 <0>        -0.1281
     18 N4         -4.5931   -3.0287    5.5191 N.pl3     1 <0>        -0.8729
     19 H1         -4.3478   -6.4690    1.3085 H         1 <0>         0.0757
     20 H2         -3.3358   -7.7535    0.6054 H         1 <0>         0.0917
     21 H3         -3.1308   -7.2931    2.3125 H         1 <0>         0.0920
     22 H4         -2.2974   -6.1526   -1.2331 H         1 <0>         0.1819
     23 H5         -0.5029   -4.2416   -1.1135 H         1 <0>         0.1552
     24 H6          0.6197   -2.8907    0.9682 H         1 <0>         0.4386
     25 H7         -2.1720   -3.8437    4.8395 H         1 <0>         0.1521
     26 H8         -5.0668   -0.7488    4.2671 H         1 <0>         0.1392
     27 H9         -3.5229    0.4076    2.7388 H         1 <0>         0.1456
     28 H10        -4.3283   -3.8653    5.9326 H         1 <0>         0.4037
     29 H11        -5.4656   -2.6492    5.7080 H         1 <0>         0.4023
@<TRIPOS>BOND
     1    1    2 1
     2    1   19 1
     3    1   20 1
     4    1   21 1
     5    2    6 1
     6    2    3 1
     7    3    4 2
     8    3   22 1
     9    4    5 1
    10    4   23 1
    11    5    6 2
    12    5    7 1
    13    7    8 1
    14    7   24 1
    15    8    9 2
    16    8   10 2
    17    8   11 1
    18   11   16 ar
    19   11   12 ar
    20   12   13 ar
    21   12   25 1
    22   13   14 ar
    23   13   18 1
    24   14   15 ar
    25   14   26 1
    26   15   16 ar
    27   15   27 1
    28   16   17 1
    29   18   28 1
    30   18   29 1
@<TRIPOS>MOLECULE
ZINC44784648
   45    46     0     0     0
SMALL
NO_CHARGES

@<TRIPOS>ATOM
      1 C1          4.3673   -3.6899    7.1382 C.3       1 <0>        -0.1919
      2 C2          4.2469   -2.1647    7.1439 C.3       1 <0>         0.1534
      3 H1          5.0998   -1.7328    7.6674 H         1 <0>         0.0744
      4 C3          2.9502   -1.7545    7.8488 C.3       1 <0>        -0.1468
      5 C4          2.7664   -0.2398    7.7294 C.3       1 <0>        -0.1200
      6 C5          2.6569    0.1476    6.2529 C.3       1 <0>        -0.1497
      7 C6          3.9503   -0.2411    5.5298 C.3       1 <0>         0.1434
      8 H2          4.7789    0.3498    5.9203 H         1 <0>         0.0752
      9 N1          4.2145   -1.6681    5.7615 N.am      1 <0>        -0.6494
     10 C7          4.4194   -2.5059    4.7258 C.2       1 <0>         0.5647
     11 O1          5.3862   -3.2381    4.7203 O.2       1 <0>        -0.4818
     12 C8          3.4473   -2.5329    3.5747 C.3       1 <0>        -0.0376
     13 C9          2.1728   -1.7767    3.9624 C.3       1 <0>        -0.2051
     14 C10         1.5023   -2.4918    5.1384 C.3       1 <0>         0.0258
     15 O2          1.2211   -3.8446    4.7738 O.3       1 <0>        -0.3773
     16 C11         2.3802   -4.6138    4.4468 C.3       1 <0>         0.0492
     17 C12         3.0859   -3.9840    3.2430 C.3       1 <0>        -0.1385
     18 C13         4.0750   -1.8816    2.3693 C.2       1 <0>         0.3721
     19 N2          3.5819   -0.7846    1.8977 N.2       1 <0>        -0.3687
     20 O3          4.1718   -0.1727    0.7651 O.3       1 <0>        -0.4125
     21 N3          5.1743   -2.4558    1.7706 N.pl3     1 <0>        -0.8852
     22 C14         3.7973    0.0186    4.0298 C.3       1 <0>        -0.2473
     23 H3          5.2094   -3.9856    6.5125 H         1 <0>         0.0907
     24 H4          4.5283   -4.0455    8.1559 H         1 <0>         0.0742
     25 H5          3.4498   -4.1253    6.7422 H         1 <0>         0.0627
     26 H6          2.1059   -2.2613    7.3814 H         1 <0>         0.0824
     27 H7          3.0047   -2.0325    8.9014 H         1 <0>         0.0799
     28 H8          1.8571    0.0579    8.2514 H         1 <0>         0.0701
     29 H9          3.6229    0.2661    8.1750 H         1 <0>         0.0659
     30 H10         1.8154   -0.3772    5.8005 H         1 <0>         0.0795
     31 H11         2.5027    1.2234    6.1696 H         1 <0>         0.0780
     32 H12         2.4281   -0.7578    4.2534 H         1 <0>         0.1532
     33 H13         1.4902   -1.7538    3.1130 H         1 <0>         0.0872
     34 H14         2.1698   -2.4788    6.0000 H         1 <0>         0.0872
     35 H15         0.5723   -1.9825    5.3910 H         1 <0>         0.0977
     36 H16         3.0591   -4.6286    5.2994 H         1 <0>         0.0609
     37 H17         2.0825   -5.6332    4.2012 H         1 <0>         0.1044
     38 H18         2.4217   -4.0056    2.3791 H         1 <0>         0.0896
     39 H19         3.9942   -4.5436    3.0195 H         1 <0>         0.0911
     40 H20         3.7338    0.6430    0.4860 H         1 <0>         0.3998
     41 H21         5.1808   -3.4067    1.5789 H         1 <0>         0.4002
     42 H22         5.9421   -1.9094    1.5407 H         1 <0>         0.4048
     43 H23         4.7471    0.3646    3.6222 H         1 <0>         0.0497
     44 H24         3.5016   -0.9037    3.5297 H         1 <0>         0.1638
     45 H25         3.0340    0.7799    3.8689 H         1 <0>         0.0806
@<TRIPOS>BOND
     1    1    2 1
     2    1   23 1
     3    1   24 1
     4    1   25 1
     5    2    3 1
     6    2    9 1
     7    2    4 1
     8    4    5 1
     9    4   26 1
    10    4   27 1
    11    5    6 1
    12    5   28 1
    13    5   29 1
    14    6    7 1
    15    6   30 1
    16    6   31 1
    17    7    8 1
    18    7    9 1
    19    7   22 1
    20    9   10 am
    21   10   11 2
    22   10   12 1
    23   12   17 1
    24   12   13 1
    25   12   18 1
    26   13   14 1
    27   13   32 1
    28   13   33 1
    29   14   15 1
    30   14   34 1
    31   14   35 1
    32   15   16 1
    33   16   17 1
    34   16   36 1
    35   16   37 1
    36   17   38 1
    37   17   39 1
    38   18   19 2
    39   18   21 1
    40   19   20 1
    41   20   40 1
    42   21   41 1
    43   21   42 1
    44   22   43 1
    45   22   44 1
    46   22   45 1
@<TRIPOS>MOLECULE
ZINC50631315
   35    36     0     0     0
SMALL
USER_CHARGES

@<TRIPOS>ATOM
      1 C1         -0.0168    1.3842    0.0097 C.ar      1 <0>         0.0622
      2 C2          1.1898    2.0609    0.0018 C.ar      1 <0>        -0.2557
      3 C3          2.3743    1.3317   -0.0135 C.ar      1 <0>         0.4482
      4 N1          2.3505    0.0077   -0.0203 N.ar      1 <0>        -0.5533
      5 C4          1.2148   -0.6639   -0.0131 C.ar      1 <0>         0.2566
      6 C5          0.0021   -0.0041    0.0020 C.ar      1 <0>        -0.7941
      7 S1         -1.5064   -0.9146    0.0121 S.o2      1 <0>         2.7025
      8 O1         -1.2051   -2.1936    0.5531 O.2       1 <0>        -0.9548
      9 O2         -2.4921   -0.0613    0.5773 O.2       1 <0>        -0.9547
     10 N2         -1.9413   -1.1591   -1.5669 N.pl3     1 <0>        -0.9950
     11 C6         -2.7861   -0.1843   -2.2703 C.3       1 <0>         0.1184
     12 C7         -2.0850    0.2304   -3.5677 C.3       1 <0>        -0.1366
     13 C8         -1.7533   -1.0197   -4.3857 C.3       1 <0>        -0.1086
     14 C9         -0.8030   -1.9160   -3.5883 C.3       1 <0>        -0.1048
     15 H1          0.1050   -1.3622   -3.3499 H         1 <0>         0.0816
     16 C10        -1.4846   -2.3520   -2.2930 C.3       1 <0>         0.1259
     17 C11        -0.4455   -3.1492   -4.4204 C.3       1 <0>         0.0801
     18 O3          0.2944   -2.7467   -5.5748 O.3       1 <0>        -0.5721
     19 N3          3.5937    1.9988   -0.0220 N.pl3     1 <0>        -0.8373
     20 H2         -0.9522    1.9236    0.0259 H         1 <0>         0.1493
     21 H3          1.2118    3.1406    0.0070 H         1 <0>         0.1415
     22 H4          1.2341   -1.7437   -0.0191 H         1 <0>         0.1709
     23 H5         -3.7495   -0.6374   -2.5043 H         1 <0>         0.0780
     24 H6         -2.9357    0.6919   -1.6395 H         1 <0>         0.0912
     25 H7         -2.7431    0.8793   -4.1455 H         1 <0>         0.0780
     26 H8         -1.1648    0.7640   -3.3294 H         1 <0>         0.0661
     27 H9         -2.6713   -1.5659   -4.6025 H         1 <0>         0.0645
     28 H10        -1.2764   -0.7259   -5.3208 H         1 <0>         0.0734
     29 H11        -0.7757   -2.9055   -1.6773 H         1 <0>         0.0935
     30 H12        -2.3395   -2.9858   -2.5290 H         1 <0>         0.0798
     31 H13         0.1589   -3.8295   -3.8204 H         1 <0>         0.0498
     32 H14        -1.3595   -3.6543   -4.7326 H         1 <0>         0.0500
     33 H15         0.5553   -3.4791   -6.1498 H         1 <0>         0.3820
     34 H16         3.6161    2.9686   -0.0173 H         1 <0>         0.4137
     35 H17         4.4223    1.4946   -0.0326 H         1 <0>         0.4096
@<TRIPOS>BOND
     1    1    6 ar
     2    1    2 ar
     3    1   20 1
     4    2    3 ar
     5    2   21 1
     6    3    4 ar
     7    3   19 1
     8    4    5 ar
     9    5    6 ar
    10    5   22 1
    11    6    7 1
    12    7    8 2
    13    7    9 2
    14    7   10 1
    15   10   16 1
    16   10   11 1
    17   11   12 1
    18   11   23 1
    19   11   24 1
    20   12   13 1
    21   12   25 1
    22   12   26 1
    23   13   14 1
    24   13   27 1
    25   13   28 1
    26   14   15 1
    27   14   16 1
    28   14   17 1
    29   16   29 1
    30   16   30 1
    31   17   18 1
    32   17   31 1
    33   17   32 1
    34   18   33 1
    35   19   34 1
    36   19   35 1
@<TRIPOS>MOLECULE
ZINC36283922
   38    39     0     0     0
SMALL
USER_CHARGES

@<TRIPOS>ATOM
      1 C1          2.4653    0.1743    0.0644 C.3       1 <0>        -0.1454
      2 C2          1.8897   -1.1902   -0.3200 C.3       1 <0>         0.0748
      3 H1          1.7870   -1.2499   -1.4035 H         1 <0>         0.0676
      4 C3          0.5155   -1.3691    0.3353 C.3       1 <0>         0.0919
      5 N1          0.0690   -2.7525    0.1068 N.pl3     1 <0>        -1.0053
      6 C4          0.9996   -3.8433    0.4380 C.3       1 <0>         0.0931
      7 C5          2.3502   -3.5438   -0.2223 C.3       1 <0>         0.0766
      8 H2          2.2493   -3.6129   -1.3054 H         1 <0>         0.0618
      9 O1          2.7670   -2.2236    0.1342 O.3       1 <0>        -0.3698
     10 C6          3.3905   -4.5568    0.2598 C.3       1 <0>        -0.1468
     11 S1         -1.4364   -3.0725   -0.5046 S.o2      1 <0>         2.7810
     12 O2         -1.8293   -4.3324    0.0222 O.2       1 <0>        -0.9723
     13 O3         -2.2090   -1.8945   -0.3186 O.2       1 <0>        -0.9651
     14 N2         -1.2680   -3.2748   -2.1395 N.pl3     1 <0>        -1.0670
     15 C7         -0.8632   -2.1998   -2.9399 C.ar      1 <0>         0.0594
     16 C8         -1.7524   -1.1714   -3.2229 C.ar      1 <0>        -0.0534
     17 C9         -1.3532   -0.1113   -4.0127 C.ar      1 <0>        -0.1889
     18 C10        -0.0625   -0.0734   -4.5235 C.ar      1 <0>         0.2269
     19 C11         0.8268   -1.1015   -4.2401 C.ar      1 <0>        -0.1923
     20 C12         0.4292   -2.1591   -3.4460 C.ar      1 <0>        -0.0634
     21 N3          0.3420    1.0011   -5.3246 N.pl3     1 <0>        -0.8752
     22 H3          3.4432    0.3002   -0.4004 H         1 <0>         0.0679
     23 H4          1.7951    0.9616   -0.2806 H         1 <0>         0.0743
     24 H5          2.5678    0.2333    1.1480 H         1 <0>         0.0668
     25 H6          0.5919   -1.1802    1.4061 H         1 <0>         0.0816
     26 H7         -0.1970   -0.6751   -0.1105 H         1 <0>         0.1002
     27 H8          1.1247   -3.9035    1.5191 H         1 <0>         0.0840
     28 H9          0.6076   -4.7876    0.0602 H         1 <0>         0.0947
     29 H10         3.0699   -5.5631   -0.0099 H         1 <0>         0.0749
     30 H11         4.3506   -4.3432   -0.2101 H         1 <0>         0.0686
     31 H12         3.4922   -4.4859    1.3427 H         1 <0>         0.0679
     32 H13        -1.4499   -4.1381   -2.5427 H         1 <0>         0.4196
     33 H14        -2.7562   -1.2009   -2.8257 H         1 <0>         0.1328
     34 H15        -2.0450    0.6881   -4.2335 H         1 <0>         0.1277
     35 H16         1.8306   -1.0721   -4.6373 H         1 <0>         0.1258
     36 H17         1.1221   -2.9567   -3.2222 H         1 <0>         0.1239
     37 H18        -0.2793    1.7191   -5.5228 H         1 <0>         0.4008
     38 H19         1.2436    1.0275   -5.6814 H         1 <0>         0.4002
@<TRIPOS>BOND
     1    1    2 1
     2    1   22 1
     3    1   23 1
     4    1   24 1
     5    2    3 1
     6    2    9 1
     7    2    4 1
     8    4    5 1
     9    4   25 1
    10    4   26 1
    11    5    6 1
    12    5   11 1
    13    6    7 1
    14    6   27 1
    15    6   28 1
    16    7    8 1
    17    7    9 1
    18    7   10 1
    19   10   29 1
    20   10   30 1
    21   10   31 1
    22   11   12 2
    23   11   13 2
    24   11   14 1
    25   14   15 1
    26   14   32 1
    27   15   20 ar
    28   15   16 ar
    29   16   17 ar
    30   16   33 1
    31   17   18 ar
    32   17   34 1
    33   18   19 ar
    34   18   21 1
    35   19   20 ar
    36   19   35 1
    37   20   36 1
    38   21   37 1
    39   21   38 1
@<TRIPOS>MOLECULE
ZINC65974845
   34    35     0     0     0
SMALL
USER_CHARGES

@<TRIPOS>ATOM
      1 C1         -0.0187    1.5258    0.0104 C.3       1 <0>        -0.1749
      2 C2          0.0021   -0.0041    0.0020 C.3       1 <0>         0.0995
      3 N1          0.6878   -0.4765   -1.2033 N.pl3     1 <0>        -0.4833
      4 C3          0.1036   -0.7448   -2.4250 C.ar      1 <0>         0.0531
      5 C4         -1.1948   -0.6763   -2.9118 C.ar      1 <0>        -0.1120
      6 C5         -1.4527   -1.0243   -4.2205 C.ar      1 <0>        -0.0967
      7 C6         -0.4240   -1.4424   -5.0528 C.ar      1 <0>        -0.1274
      8 C7          0.8595   -1.5165   -4.5911 C.ar      1 <0>        -0.0604
      9 C8          1.1448   -1.1678   -3.2683 C.ar      1 <0>         0.0447
     10 N2          2.2862   -1.1365   -2.5335 N.2       1 <0>        -0.4741
     11 C9          2.0192   -0.7266   -1.3279 C.2       1 <0>         0.2659
     12 C10         3.0360   -0.5570   -0.2286 C.3       1 <0>         0.2382
     13 C11         3.8602    0.7059   -0.4867 C.3       1 <0>        -0.1680
     14 N3          3.9236   -1.7221   -0.2004 N.pl3     1 <0>        -1.1095
     15 S1          4.5062   -2.2844    1.2442 S.o2      1 <0>         2.7981
     16 O1          5.3036   -3.4220    0.9454 O.2       1 <0>        -0.9749
     17 O2          5.0182   -1.1573    1.9419 O.2       1 <0>        -0.9751
     18 N4          3.2089   -2.8314    2.1159 N.pl3     1 <0>        -1.2637
     19 H1          1.0039    1.9031    0.0027 H         1 <0>         0.0660
     20 H2         -0.5459    1.8868   -0.8726 H         1 <0>         0.0658
     21 H3         -0.5289    1.8773    0.9072 H         1 <0>         0.0817
     22 H4          0.5293   -0.3651    0.8851 H         1 <0>         0.0930
     23 H5         -1.0205   -0.3814    0.0098 H         1 <0>         0.0961
     24 H6         -1.9992   -0.3522   -2.2680 H         1 <0>         0.1221
     25 H7         -2.4622   -0.9715   -4.6005 H         1 <0>         0.1314
     26 H8         -0.6404   -1.7124   -6.0759 H         1 <0>         0.1311
     27 H9          1.6524   -1.8439   -5.2472 H         1 <0>         0.1305
     28 H10         2.5238   -0.4671    0.7294 H         1 <0>         0.0988
     29 H11         4.3724    0.6161   -1.4446 H         1 <0>         0.0779
     30 H12         3.1998    1.5728   -0.5076 H         1 <0>         0.0706
     31 H13         4.5956    0.8286    0.3084 H         1 <0>         0.0878
     32 H14         4.1700   -2.1643   -1.0278 H         1 <0>         0.4326
     33 H15         2.3158   -2.7790    1.7409 H         1 <0>         0.4120
     34 H16         3.3420   -3.2043    3.0014 H         1 <0>         0.4230
@<TRIPOS>BOND
     1    1    2 1
     2    1   19 1
     3    1   20 1
     4    1   21 1
     5    2    3 1
     6    2   22 1
     7    2   23 1
     8    3   11 1
     9    3    4 1
    10    4    9 ar
    11    4    5 ar
    12    5    6 ar
    13    5   24 1
    14    6    7 ar
    15    6   25 1
    16    7    8 ar
    17    7   26 1
    18    8    9 ar
    19    8   27 1
    20    9   10 1
    21   10   11 2
    22   11   12 1
    23   12   13 1
    24   12   14 1
    25   12   28 1
    26   13   29 1
    27   13   30 1
    28   13   31 1
    29   14   15 1
    30   14   32 1
    31   15   16 2
    32   15   17 2
    33   15   18 1
    34   18   33 1
    35   18   34 1
@<TRIPOS>MOLECULE
ZINC20057510
   27    27     0     0     0
SMALL
USER_CHARGES
N'-[(3-bromo-2-hydroxy-5-nitro-phenyl)methyleneamino]-1-methylsulfanyl-formamidine
@<TRIPOS>ATOM
      1 C1          6.3306   -5.1626   -0.4389 C.3       1 <0>        -0.2429
      2 S1          5.1467   -3.8046   -0.2649 S.3       1 <0>         0.2212
      3 C2          3.6786   -4.6851   -0.2896 C.cat     1 <0>         0.4131
      4 N1          2.4820   -4.0207   -0.2807 N.pl3     1 <0>        -0.4415
      5 N2          2.4578   -2.7372   -0.1544 N.2       1 <0>        -0.3119
      6 C3          1.2708   -2.0885   -0.0432 C.2       1 <0>         0.2072
      7 C4          1.2382   -0.6949   -0.0121 C.ar      1 <0>        -0.2394
      8 C5          0.0012   -0.0001   -0.0109 C.ar      1 <0>         0.0685
      9 C6         -0.0109    1.3575    0.0192 C.ar      1 <0>        -0.1088
     10 C7          1.1734    2.0919    0.0494 C.ar      1 <0>         0.0278
     11 C8          2.4054    1.4697    0.0497 C.ar      1 <0>        -0.1922
     12 C9          2.4843    0.0833    0.0197 C.ar      1 <0>         0.3544
     13 O1          3.6844   -0.5382    0.0193 O.3       1 <0>        -0.5503
     14 Br1         3.9870    2.5053    0.0918 Br        1 <0>        -0.0340
     15 N3         -1.3074    2.0716    0.0139 N.pl3     1 <0>         0.0143
     16 O2         -2.4341    1.3906   -0.0199 O.2       1 <0>        -0.2241
     17 O3         -1.3342    3.3880    0.0428 O.3       1 <0>        -0.2133
     18 N4          3.7012   -6.0310   -0.3178 N.pl3     1 <0>        -0.8272
     19 H1          7.3538   -4.7589   -0.4414 H         1 <0>         0.1432
     20 H2          6.1435   -5.6933   -1.3841 H         1 <0>         0.1045
     21 H3          6.2139   -5.8609    0.4030 H         1 <0>         0.1019
     22 H4          0.3345   -2.6622    0.0224 H         1 <0>         0.1257
     23 H5         -0.9283   -0.5494   -0.0336 H         1 <0>         0.1482
     24 H6          1.1260    3.1706    0.0726 H         1 <0>         0.1477
     25 H7          2.7579   -6.5967   -0.3337 H         1 <0>         0.4455
     26 H8          4.6629   -6.5649   -0.3250 H         1 <0>         0.4626
     27 H9          1.5409   -4.5813   -0.3813 H         1 <0>         0.3997
@<TRIPOS>BOND
     1    1    2 1
     2    1   19 1
     3    1   20 1
     4    1   21 1
     5    2    3 1
     6    3    4 2
     7    3   18 1
     8    4    5 1
     9    4   27 1
    10    5    6 2
    11    6    7 1
    12    6   22 1
    13    7   12 ar
    14    7    8 ar
    15    8    9 ar
    16    8   23 1
    17    9   10 ar
    18    9   15 1
    19   10   11 ar
    20   10   24 1
    21   11   12 ar
    22   11   14 1
    23   12   13 1
    24   15   16 2
    25   15   17 1
    26   18   25 1
    27   18   26 1
@<TRIPOS>MOLECULE
ZINC40568091
   46    48     0     0     0
SMALL
USER_CHARGES

@<TRIPOS>ATOM
      1 C1         -0.0833    1.1144   -0.8825 C.3       1 <0>        -0.1524
      2 C2         -0.0436   -0.4063   -0.7185 C.3       1 <0>         0.0543
      3 O1          0.6405   -0.7371    0.4918 O.3       1 <0>        -0.3177
      4 C3          0.7642   -2.0574    0.7894 C.ar      1 <0>         0.1291
      5 C4          0.2431   -3.0149   -0.0687 C.ar      1 <0>        -0.2073
      6 C5          0.3706   -4.3563    0.2359 C.ar      1 <0>        -0.0573
      7 C6          1.0165   -4.7449    1.3950 C.ar      1 <0>        -0.1080
      8 C7          1.5363   -3.7925    2.2520 C.ar      1 <0>        -0.0605
      9 C8          1.4168   -2.4500    1.9489 C.ar      1 <0>        -0.1524
     10 C9          1.1537   -6.2089    1.7250 C.3       1 <0>         0.1176
     11 H1          0.6862   -6.8018    0.9389 H         1 <0>         0.0969
     12 C10         2.6122   -6.5646    1.8172 C.2       1 <0>        -0.2635
     13 C11         3.2173   -6.7473    3.0425 C.2       1 <0>         0.2204
     14 C12         4.5873   -7.0795    3.0848 C.2       1 <0>        -0.2315
     15 C13         5.2810   -7.2128    1.9341 C.2       1 <0>         0.1963
     16 N1          4.6775   -7.0308    0.7303 N.am      1 <0>        -0.6100
     17 H2          5.1955   -7.1318   -0.0836 H         1 <0>         0.4189
     18 C14         3.3719   -6.7135    0.6496 C.2       1 <0>         0.5432
     19 O2          2.8491   -6.5549   -0.4425 O.2       1 <0>        -0.5283
     20 C15         6.7447   -7.5677    1.9855 C.3       1 <0>        -0.1282
     21 O3          2.5216   -6.6138    4.1917 O.3       1 <0>        -0.2384
     22 C16         1.1798   -6.6749    4.1742 C.2       1 <0>         0.4206
     23 C17         0.4712   -6.4907    3.0347 C.2       1 <0>        -0.3554
     24 C18        -0.9290   -6.5651    3.0797 C.2       1 <0>         0.5408
     25 O4         -1.4977   -7.5750    2.7047 O.2       1 <0>        -0.4988
     26 O5         -1.6466   -5.5169    3.5387 O.3       1 <0>        -0.3497
     27 C19        -3.0681   -5.6619    3.5565 C.3       1 <0>         0.0286
     28 N2          0.5106   -6.9293    5.3412 N.pl3     1 <0>        -0.8321
     29 H3          0.9346    1.5022   -0.9228 H         1 <0>         0.0660
     30 H4         -0.6050    1.3668   -1.8056 H         1 <0>         0.0783
     31 H5         -0.6077    1.5576   -0.0359 H         1 <0>         0.0662
     32 H6         -1.0615   -0.7941   -0.6782 H         1 <0>         0.0615
     33 H7          0.4809   -0.8494   -1.5651 H         1 <0>         0.0614
     34 H8         -0.2621   -2.7118   -0.9739 H         1 <0>         0.1262
     35 H9         -0.0349   -5.1020   -0.4318 H         1 <0>         0.1235
     36 H10         2.0401   -4.0986    3.1570 H         1 <0>         0.1178
     37 H11         1.8269   -1.7066    2.6165 H         1 <0>         0.1280
     38 H12         5.0800   -7.2264    4.0346 H         1 <0>         0.1610
     39 H13         6.8565   -8.6519    1.9683 H         1 <0>         0.0965
     40 H14         7.2537   -7.1362    1.1237 H         1 <0>         0.0840
     41 H15         7.1825   -7.1719    2.9019 H         1 <0>         0.0985
     42 H16        -3.5214   -4.7506    3.9465 H         1 <0>         0.1010
     43 H17        -3.4277   -5.8418    2.5434 H         1 <0>         0.0608
     44 H18        -3.3395   -6.5040    4.1932 H         1 <0>         0.0588
     45 H19         1.0057   -7.1431    6.1474 H         1 <0>         0.4114
     46 H20        -0.4586   -6.8957    5.3617 H         1 <0>         0.4239
@<TRIPOS>BOND
     1    1    2 1
     2    1   29 1
     3    1   30 1
     4    1   31 1
     5    2    3 1
     6    2   32 1
     7    2   33 1
     8    3    4 1
     9    4    9 ar
    10    4    5 ar
    11    5    6 ar
    12    5   34 1
    13    6    7 ar
    14    6   35 1
    15    7    8 ar
    16    7   10 1
    17    8    9 ar
    18    8   36 1
    19    9   37 1
    20   10   11 1
    21   10   23 1
    22   10   12 1
    23   12   18 1
    24   12   13 2
    25   13   14 1
    26   13   21 1
    27   14   15 2
    28   14   38 1
    29   15   16 1
    30   15   20 1
    31   16   17 1
    32   16   18 am
    33   18   19 2
    34   20   39 1
    35   20   40 1
    36   20   41 1
    37   21   22 1
    38   22   23 2
    39   22   28 1
    40   23   24 1
    41   24   25 2
    42   24   26 1
    43   26   27 1
    44   27   42 1
    45   27   43 1
    46   27   44 1
    47   28   45 1
    48   28   46 1
@<TRIPOS>MOLECULE
ZINC12074400
   47    49     0     0     0
SMALL
USER_CHARGES

@<TRIPOS>ATOM
      1 C1         -0.0252    1.5189    0.0211 C.3       1 <0>        -0.1288
      2 C2          0.0037    0.0122    0.0059 C.2       1 <0>         0.2039
      3 C3         -1.1505   -0.6884    0.0023 C.2       1 <0>        -0.2671
      4 C4         -1.0975   -2.1031   -0.0125 C.2       1 <0>         0.5543
      5 O1         -2.1251   -2.7566   -0.0165 O.2       1 <0>        -0.5053
      6 N1          0.1014   -2.7202   -0.0227 N.am      1 <0>        -0.6594
      7 H1          0.1458   -3.6891   -0.0332 H         1 <0>         0.4328
      8 C5          1.2366   -1.9971   -0.0187 C.2       1 <0>         0.6996
      9 O2          2.3104   -2.5673   -0.0280 O.2       1 <0>        -0.5386
     10 N2          1.1998   -0.6522   -0.0099 N.am      1 <0>        -0.6337
     11 H2          2.0290   -0.1489   -0.0114 H         1 <0>         0.4361
     12 C6         -2.4774    0.0259    0.0143 C.3       1 <0>        -0.0303
     13 C7         -2.9908    0.1723   -1.4195 C.3       1 <0>        -0.1352
     14 C8         -4.3177    0.8866   -1.4074 C.2       1 <0>         0.5133
     15 O3         -4.8048    1.2435   -0.3555 O.2       1 <0>        -0.5223
     16 N3         -4.9631    1.1289   -2.5655 N.am      1 <0>        -0.6713
     17 C9         -6.2404    1.7056   -2.5486 C.ar      1 <0>         0.0789
     18 C10        -7.1852    1.3277   -3.4933 C.ar      1 <0>        -0.0919
     19 C11        -8.4436    1.8954   -3.4765 C.ar      1 <0>        -0.1789
     20 C12        -8.7644    2.8444   -2.5145 C.ar      1 <0>         0.2261
     21 C13        -7.8192    3.2222   -1.5696 C.ar      1 <0>        -0.1795
     22 C14        -6.5626    2.6505   -1.5835 C.ar      1 <0>        -0.0668
     23 N4        -10.0393    3.4200   -2.4976 N.pl3     1 <0>        -0.6381
     24 C15       -11.1323    3.1092   -3.4305 C.3       1 <0>         0.1134
     25 C16       -12.3314    4.0008   -3.0448 C.3       1 <0>        -0.1329
     26 C17       -11.6619    5.1692   -2.2741 C.3       1 <0>        -0.1341
     27 C18       -10.5115    4.4342   -1.5374 C.3       1 <0>         0.1114
     28 H3          0.9952    1.9020    0.0170 H         1 <0>         0.0818
     29 H4         -0.5529    1.8810   -0.8613 H         1 <0>         0.1002
     30 H5         -0.5391    1.8634    0.9186 H         1 <0>         0.1042
     31 H6         -3.1944   -0.5494    0.6001 H         1 <0>         0.0916
     32 H7         -2.3543    1.0135    0.4588 H         1 <0>         0.0871
     33 H8         -2.2738    0.7476   -2.0052 H         1 <0>         0.0941
     34 H9         -3.1138   -0.8153   -1.8640 H         1 <0>         0.1000
     35 H10        -4.5437    0.9041   -3.4108 H         1 <0>         0.4082
     36 H11        -6.9356    0.5900   -4.2415 H         1 <0>         0.1241
     37 H12        -9.1784    1.6017   -4.2115 H         1 <0>         0.1221
     38 H13        -8.0685    3.9602   -0.8215 H         1 <0>         0.1220
     39 H14        -5.8290    2.9409   -0.8460 H         1 <0>         0.1385
     40 H15       -10.8212    3.3277   -4.4520 H         1 <0>         0.0605
     41 H16       -11.4080    2.0584   -3.3415 H         1 <0>         0.0602
     42 H17       -12.8409    4.3683   -3.9356 H         1 <0>         0.0818
     43 H18       -13.0230    3.4592   -2.3995 H         1 <0>         0.0762
     44 H19       -11.2731    5.9194   -2.9626 H         1 <0>         0.0759
     45 H20       -12.3562    5.6165   -1.5627 H         1 <0>         0.0833
     46 H21       -10.8830    3.9551   -0.6315 H         1 <0>         0.0616
     47 H22        -9.7090    5.1316   -1.2969 H         1 <0>         0.0709
@<TRIPOS>BOND
     1    1    2 1
     2    1   28 1
     3    1   29 1
     4    1   30 1
     5    2   10 1
     6    2    3 2
     7    3    4 1
     8    3   12 1
     9    4    5 2
    10    4    6 am
    11    6    7 1
    12    6    8 am
    13    8    9 2
    14    8   10 am
    15   10   11 1
    16   12   13 1
    17   12   31 1
    18   12   32 1
    19   13   14 1
    20   13   33 1
    21   13   34 1
    22   14   15 2
    23   14   16 am
    24   16   17 1
    25   16   35 1
    26   17   22 ar
    27   17   18 ar
    28   18   19 ar
    29   18   36 1
    30   19   20 ar
    31   19   37 1
    32   20   21 ar
    33   20   23 1
    34   21   22 ar
    35   21   38 1
    36   22   39 1
    37   23   27 1
    38   23   24 1
    39   24   25 1
    40   24   40 1
    41   24   41 1
    42   25   26 1
    43   25   42 1
    44   25   43 1
    45   26   27 1
    46   26   44 1
    47   26   45 1
    48   27   46 1
    49   27   47 1
@<TRIPOS>MOLECULE
ZINC48314140
   47    49     0     0     0
SMALL
USER_CHARGES

@<TRIPOS>ATOM
      1 C1         -0.0231    1.3515    0.0044 C.2       1 <0>        -0.1013
      2 C2          1.1869    2.0650   -0.0033 C.2       1 <0>        -0.1408
      3 C3          2.3652    1.4072   -0.0174 C.2       1 <0>         0.0542
      4 N1          2.3994    0.0428   -0.0248 N.pl3     1 <0>        -0.3618
      5 C4          3.4299   -0.8573   -0.0396 C.2       1 <0>        -0.0928
      6 C5          2.8814   -2.0920   -0.0411 C.2       1 <0>         0.0647
      7 N2          1.5521   -1.9680   -0.0276 N.2       1 <0>        -0.4847
      8 C6          1.2352   -0.6809   -0.0175 C.2       1 <0>         0.2254
      9 C7         -0.0033   -0.0086   -0.0024 C.2       1 <0>        -0.0790
     10 C8          3.6430   -3.3923   -0.0560 C.3       1 <0>        -0.0474
     11 C9          3.1986   -4.2572    1.1253 C.3       1 <0>         0.1460
     12 N3          3.9389   -5.5212    1.1108 N.am      1 <0>        -0.7485
     13 C10         3.7113   -6.4465    2.0640 C.2       1 <0>         0.7084
     14 O1          2.9607   -6.1963    2.9872 O.2       1 <0>        -0.5882
     15 N4          4.3158   -7.6490    1.9939 N.am      1 <0>        -0.6296
     16 C11         3.9900   -8.7080    2.9588 C.3       1 <0>         0.1301
     17 C12         3.5962   -9.9725    2.1889 C.3       1 <0>        -0.1315
     18 C13         4.7138  -10.3371    1.2091 C.3       1 <0>        -0.0713
     19 C14         4.9045   -9.1992    0.2037 C.3       1 <0>        -0.1359
     20 C15         5.3086   -7.9279    0.9474 C.3       1 <0>         0.1147
     21 C16         4.3393  -11.6192    0.4628 C.3       1 <0>        -0.1401
     22 C17         5.4902  -12.0461   -0.4114 C.2       1 <0>         0.5157
     23 O2          6.5097  -11.3895   -0.4352 O.2       1 <0>        -0.5397
     24 N5          5.3866  -13.1575   -1.1667 N.am      1 <0>        -0.8589
     25 H1         -0.9646    1.8803    0.0202 H         1 <0>         0.1442
     26 H2          1.1742    3.1449    0.0017 H         1 <0>         0.1521
     27 H3          3.2896    1.9655   -0.0232 H         1 <0>         0.1636
     28 H4          4.4844   -0.6243   -0.0490 H         1 <0>         0.1832
     29 H5         -0.9274   -0.5676    0.0038 H         1 <0>         0.1520
     30 H6          3.4426   -3.9201   -0.9884 H         1 <0>         0.0871
     31 H7          4.7108   -3.1888    0.0241 H         1 <0>         0.0857
     32 H8          3.3989   -3.7294    2.0577 H         1 <0>         0.0662
     33 H9          2.1307   -4.4606    1.0452 H         1 <0>         0.0759
     34 H10         4.5929   -5.6923    0.4152 H         1 <0>         0.3948
     35 H11         4.8603   -8.9155    3.5814 H         1 <0>         0.0659
     36 H12         3.1577   -8.3878    3.5856 H         1 <0>         0.0948
     37 H13         3.4451  -10.7932    2.8902 H         1 <0>         0.0777
     38 H14         2.6739   -9.7902    1.6373 H         1 <0>         0.0687
     39 H15         5.6416  -10.4951    1.7589 H         1 <0>         0.0824
     40 H16         5.6846   -9.4694   -0.5081 H         1 <0>         0.0944
     41 H17         3.9699   -9.0241   -0.3292 H         1 <0>         0.0619
     42 H18         5.3461   -7.0932    0.2475 H         1 <0>         0.0749
     43 H19         6.2889   -8.0704    1.4023 H         1 <0>         0.0717
     44 H20         4.1180  -12.4072    1.1827 H         1 <0>         0.0967
     45 H21         3.4612  -11.4358   -0.1565 H         1 <0>         0.0950
     46 H22         4.5713  -13.6826   -1.1477 H         1 <0>         0.4018
     47 H23         6.1275  -13.4322   -1.7294 H         1 <0>         0.4015
@<TRIPOS>BOND
     1    1    9 2
     2    1    2 1
     3    1   25 1
     4    2    3 2
     5    2   26 1
     6    3    4 1
     7    3   27 1
     8    4    8 1
     9    4    5 1
    10    5    6 2
    11    5   28 1
    12    6    7 1
    13    6   10 1
    14    7    8 2
    15    8    9 1
    16    9   29 1
    17   10   11 1
    18   10   30 1
    19   10   31 1
    20   11   12 1
    21   11   32 1
    22   11   33 1
    23   12   13 am
    24   12   34 1
    25   13   14 2
    26   13   15 am
    27   15   20 1
    28   15   16 1
    29   16   17 1
    30   16   35 1
    31   16   36 1
    32   17   18 1
    33   17   37 1
    34   17   38 1
    35   18   19 1
    36   18   21 1
    37   18   39 1
    38   19   20 1
    39   19   40 1
    40   19   41 1
    41   20   42 1
    42   20   43 1
    43   21   22 1
    44   21   44 1
    45   21   45 1
    46   22   23 2
    47   22   24 am
    48   24   46 1
    49   24   47 1
@<TRIPOS>MOLECULE
ZINC67302050
   46    47     0     0     0
SMALL
USER_CHARGES

@<TRIPOS>ATOM
      1 C1         -3.4123    0.7889    4.4794 C.3       1 <0>        -0.1665
      2 C2         -3.9354   -0.5719    4.0152 C.3       1 <0>         0.1313
      3 N1         -3.1623   -1.0225    2.8552 N.am      1 <0>        -0.7419
      4 C3         -3.4477   -2.2039    2.2728 C.2       1 <0>         0.7022
      5 O1         -4.3468   -2.8958    2.7101 O.2       1 <0>        -0.5717
      6 N2         -2.7365   -2.6184    1.2056 N.am      1 <0>        -0.6859
      7 C4         -2.9675   -3.8864    0.6605 C.ar      1 <0>         0.1785
      8 C5         -1.9106   -4.6221    0.1387 C.ar      1 <0>        -0.1590
      9 C6         -2.1378   -5.8738   -0.3997 C.ar      1 <0>        -0.0830
     10 C7         -3.4161   -6.3981   -0.4215 C.ar      1 <0>        -0.1348
     11 C8         -4.4769   -5.6677    0.0986 C.ar      1 <0>         0.1589
     12 C9         -4.2509   -4.4125    0.6456 C.ar      1 <0>        -0.1450
     13 N3         -5.7711   -6.1990    0.0756 N.am      1 <0>        -0.6730
     14 C10        -5.9591   -7.5229    0.2444 C.2       1 <0>         0.5148
     15 O2         -5.0036   -8.2648    0.3323 O.2       1 <0>        -0.5168
     16 C11        -7.3565   -8.0814    0.3239 C.3       1 <0>        -0.1363
     17 C12        -7.2895   -9.5979    0.5154 C.3       1 <0>        -0.0304
     18 C13        -8.6869  -10.1565    0.5949 C.2       1 <0>        -0.2569
     19 C14        -9.4476  -10.3137    1.7674 C.2       1 <0>         0.1131
     20 N4        -10.5994  -10.8251    1.4365 N.2       1 <0>        -0.3213
     21 O3        -10.6068  -11.0103    0.0324 O.3       1 <0>        -0.0807
     22 C15        -9.4267  -10.5864   -0.4452 C.2       1 <0>         0.0788
     23 C16        -9.0022  -10.5936   -1.8911 C.3       1 <0>        -0.0911
     24 C17        -9.0071   -9.9540    3.1630 C.3       1 <0>        -0.0900
     25 H1         -3.9875    1.1241    5.3424 H         1 <0>         0.0776
     26 H2         -2.3617    0.6993    4.7555 H         1 <0>         0.0626
     27 H3         -3.5151    1.5127    3.6709 H         1 <0>         0.0625
     28 H4         -3.8326   -1.2957    4.8237 H         1 <0>         0.0686
     29 H5         -4.9860   -0.4824    3.7391 H         1 <0>         0.0683
     30 H6         -2.4450   -0.4705    2.5063 H         1 <0>         0.3983
     31 H7         -2.0645   -2.0378    0.8155 H         1 <0>         0.4082
     32 H8         -0.9105   -4.2147    0.1537 H         1 <0>         0.1261
     33 H9         -1.3146   -6.4437   -0.8046 H         1 <0>         0.1308
     34 H10        -3.5906   -7.3767   -0.8437 H         1 <0>         0.1400
     35 H11        -5.0734   -3.8444    1.0546 H         1 <0>         0.1440
     36 H12        -6.5330   -5.6146   -0.0617 H         1 <0>         0.4119
     37 H13        -7.8802   -7.6315    1.1673 H         1 <0>         0.0993
     38 H14        -7.8913   -7.8550   -0.5985 H         1 <0>         0.0975
     39 H15        -6.7658  -10.0479   -0.3280 H         1 <0>         0.0844
     40 H16        -6.7547   -9.8244    1.4379 H         1 <0>         0.0856
     41 H17        -8.5155  -11.5412   -2.1222 H         1 <0>         0.0963
     42 H18        -9.8784  -10.4705   -2.5277 H         1 <0>         0.0880
     43 H19        -8.3056   -9.7744   -2.0694 H         1 <0>         0.0943
     44 H20        -9.2850   -8.9220    3.3771 H         1 <0>         0.0900
     45 H21        -9.4922  -10.6170    3.8794 H         1 <0>         0.0832
     46 H22        -7.9254  -10.0629    3.2420 H         1 <0>         0.0890
@<TRIPOS>BOND
     1    1    2 1
     2    1   25 1
     3    1   26 1
     4    1   27 1
     5    2    3 1
     6    2   28 1
     7    2   29 1
     8    3    4 am
     9    3   30 1
    10    4    5 2
    11    4    6 am
    12    6    7 1
    13    6   31 1
    14    7   12 ar
    15    7    8 ar
    16    8    9 ar
    17    8   32 1
    18    9   10 ar
    19    9   33 1
    20   10   11 ar
    21   10   34 1
    22   11   12 ar
    23   11   13 1
    24   12   35 1
    25   13   14 am
    26   13   36 1
    27   14   15 2
    28   14   16 1
    29   16   17 1
    30   16   37 1
    31   16   38 1
    32   17   18 1
    33   17   39 1
    34   17   40 1
    35   18   22 2
    36   18   19 1
    37   19   20 2
    38   19   24 1
    39   20   21 1
    40   21   22 1
    41   22   23 1
    42   23   41 1
    43   23   42 1
    44   23   43 1
    45   24   44 1
    46   24   45 1
    47   24   46 1
@<TRIPOS>MOLECULE
ZINC32338258
   49    52     0     0     0
SMALL
USER_CHARGES
4-oxo-4-(3-oxo-2,4-dihydroquinoxalin-1-yl)-N-[(4S)-thiochroman-4-yl]butanamide
@<TRIPOS>ATOM
      1 C1          3.5632   -3.7293   -4.9965 C.ar      1 <0>        -0.1242
      2 C2          4.1589   -4.7379   -5.7325 C.ar      1 <0>        -0.0997
      3 C3          3.4089   -5.8246   -6.1259 C.ar      1 <0>        -0.1033
      4 C4          2.0578   -5.9131   -5.7892 C.ar      1 <0>        -0.0688
      5 C5          1.4629   -4.9141   -5.0415 C.ar      1 <0>        -0.1033
      6 C6          2.2313   -3.8183   -4.6551 C.ar      1 <0>        -0.0920
      7 C7          0.0288   -4.9172   -4.6015 C.3       1 <0>         0.1861
      8 H1          0.0039   -5.3268   -3.5809 H         1 <0>         0.1008
      9 C8         -0.8768   -5.7664   -5.4760 C.3       1 <0>        -0.1317
     10 C9         -0.4003   -7.2255   -5.4243 C.3       1 <0>        -0.1051
     11 S1          1.1526   -7.3154   -6.3638 S.3       1 <0>        -0.1189
     12 N1         -0.4674   -3.5389   -4.6132 N.am      1 <0>        -0.7321
     13 C10        -0.2661   -2.7411   -3.5457 C.2       1 <0>         0.5159
     14 O1          0.3259   -3.1642   -2.5755 O.2       1 <0>        -0.5373
     15 C11        -0.7765   -1.3232   -3.5578 C.3       1 <0>        -0.1276
     16 C12        -0.4183   -0.6410   -2.2360 C.3       1 <0>        -0.1287
     17 C13        -0.9288    0.7769   -2.2480 C.2       1 <0>         0.5224
     18 O2         -1.5208    1.2001   -3.2184 O.2       1 <0>        -0.5111
     19 N2         -0.7274    1.5747   -1.1806 N.am      1 <0>        -0.5594
     20 C14        -0.0127    1.0858    0.0080 C.3       1 <0>         0.0853
     21 C15        -0.7218    1.5737    1.2454 C.2       1 <0>         0.5141
     22 O3         -0.6685    0.9179    2.2643 O.2       1 <0>        -0.5130
     23 N3         -1.4156    2.7287    1.2311 N.am      1 <0>        -0.6697
     24 C16        -1.5327    3.4787    0.0558 C.ar      1 <0>         0.1347
     25 C17        -1.1928    2.8989   -1.1681 C.ar      1 <0>         0.1043
     26 C18        -1.3155    3.6239   -2.3392 C.ar      1 <0>        -0.0893
     27 C19        -1.7737    4.9290   -2.2937 C.ar      1 <0>        -0.1222
     28 C20        -2.1074    5.5067   -1.0828 C.ar      1 <0>        -0.0986
     29 C21        -1.9885    4.7864    0.0919 C.ar      1 <0>        -0.1354
     30 H2          4.1426   -2.8711   -4.6895 H         1 <0>         0.1240
     31 H3          5.2042   -4.6740   -5.9963 H         1 <0>         0.1293
     32 H4          3.8707   -6.6147   -6.6995 H         1 <0>         0.1284
     33 H5          1.7759   -3.0261   -4.0794 H         1 <0>         0.1273
     34 H6         -1.9105   -5.7012   -5.1056 H         1 <0>         0.0936
     35 H7         -0.8349   -5.3997   -6.5122 H         1 <0>         0.0876
     36 H8         -0.2374   -7.5211   -4.3774 H         1 <0>         0.0959
     37 H9         -1.1639   -7.8768   -5.8746 H         1 <0>         0.1214
     38 H10        -1.0043   -3.1551   -5.4932 H         1 <0>         0.4288
     39 H11        -0.3138   -0.7741   -4.3911 H         1 <0>         0.1070
     40 H12        -1.8693   -1.3279   -3.6837 H         1 <0>         0.1068
     41 H13        -0.8809   -1.1903   -1.4028 H         1 <0>         0.1092
     42 H14         0.6745   -0.6362   -2.1102 H         1 <0>         0.1102
     43 H15         0.0029   -0.0141   -0.0001 H         1 <0>         0.1353
     44 H16         1.0190    1.4672   -0.0018 H         1 <0>         0.1157
     45 H17        -1.8980    3.0919    2.1505 H         1 <0>         0.4416
     46 H18        -1.0544    3.1736   -3.2855 H         1 <0>         0.1479
     47 H19        -1.8706    5.4978   -3.2067 H         1 <0>         0.1317
     48 H20        -2.4633    6.5260   -1.0540 H         1 <0>         0.1317
     49 H21        -2.2507    5.2423    1.0352 H         1 <0>         0.1343
@<TRIPOS>BOND
     1    1    6 ar
     2    1    2 ar
     3    1   30 1
     4    2    3 ar
     5    2   31 1
     6    3    4 ar
     7    3   32 1
     8    4   11 1
     9    4    5 ar
    10    5    6 ar
    11    5    7 1
    12    6   33 1
    13    7    8 1
    14    7    9 1
    15    7   12 1
    16    9   10 1
    17    9   34 1
    18    9   35 1
    19   10   11 1
    20   10   36 1
    21   10   37 1
    22   12   13 am
    23   12   38 1
    24   13   14 2
    25   13   15 1
    26   15   16 1
    27   15   39 1
    28   15   40 1
    29   16   17 1
    30   16   41 1
    31   16   42 1
    32   17   18 2
    33   17   19 am
    34   19   25 1
    35   19   20 1
    36   20   21 1
    37   20   43 1
    38   20   44 1
    39   21   22 2
    40   21   23 am
    41   23   24 1
    42   23   45 1
    43   24   29 ar
    44   24   25 ar
    45   25   26 ar
    46   26   27 ar
    47   26   46 1
    48   27   28 ar
    49   27   47 1
    50   28   29 ar
    51   28   48 1
    52   29   49 1
@<TRIPOS>MOLECULE
ZINC49490800
   48    50     0     0     0
SMALL
USER_CHARGES

@<TRIPOS>ATOM
      1 C1         -0.1123    1.2672    0.1342 C.ar      1 <0>        -0.1190
      2 C2          1.0536    1.9935    0.2912 C.ar      1 <0>        -0.1206
      3 C3          2.2727    1.3467    0.2833 C.ar      1 <0>        -0.1158
      4 C4          2.3356   -0.0296    0.1198 C.ar      1 <0>        -0.0761
      5 C5          1.1728   -0.7536   -0.0331 C.ar      1 <0>        -0.0699
      6 C6         -0.0515   -0.1023   -0.0278 C.ar      1 <0>        -0.1196
      7 C7          1.1898   -2.2511   -0.2021 C.3       1 <0>        -0.0759
      8 C8          2.5926   -2.7164   -0.5935 C.3       1 <0>         0.0543
      9 N1          3.5592   -2.1308    0.3490 N.3       1 <0>        -0.5191
     10 C9          3.6895   -0.6896    0.1126 C.3       1 <0>         0.0811
     11 C10         4.8629   -2.8006    0.2500 C.3       1 <0>         0.1559
     12 H1          4.7569   -3.8464    0.5382 H         1 <0>         0.1261
     13 C11         5.8616   -2.1130    1.1831 C.3       1 <0>         0.1226
     14 N2          5.3202   -2.0870    2.5441 N.am      1 <0>        -0.6855
     15 C12         6.0317   -1.5260    3.5419 C.2       1 <0>         0.5107
     16 O1          7.1209   -1.0426    3.3128 O.2       1 <0>        -0.5148
     17 C13         5.4794   -1.4995    4.9303 C.2       1 <0>         0.5183
     18 O2          4.3902   -1.9830    5.1593 O.2       1 <0>        -0.5028
     19 N3          6.1909   -0.9385    5.9280 N.am      1 <0>        -0.7040
     20 C14         5.6495   -0.9125    7.2890 C.3       1 <0>         0.0759
     21 C15         6.6482   -0.2250    8.2222 C.3       1 <0>         0.4495
     22 F1          6.8707    1.0848    7.7837 F         1 <0>        -0.1754
     23 F2          6.1311   -0.2001    9.5219 F         1 <0>        -0.1691
     24 F3          7.8560   -0.9309    8.2142 F         1 <0>        -0.1754
     25 C16         5.3631   -2.7189   -1.1692 C.2       1 <0>        -0.0534
     26 C17         5.8620   -3.7409   -1.8875 C.2       1 <0>        -0.1869
     27 C18         6.2058   -3.2204   -3.1563 C.2       1 <0>        -0.2130
     28 C19         5.8965   -1.9115   -3.1375 C.2       1 <0>        -0.0350
     29 O3          5.3811   -1.6145   -1.9333 O.3       1 <0>        -0.1694
     30 H2         -1.0684    1.7695    0.1427 H         1 <0>         0.1220
     31 H3          1.0104    3.0650    0.4195 H         1 <0>         0.1222
     32 H4          3.1830    1.9151    0.4046 H         1 <0>         0.1199
     33 H5         -0.9623   -0.6695   -0.1511 H         1 <0>         0.1215
     34 H6          0.9002   -2.7245    0.7361 H         1 <0>         0.0868
     35 H7          0.4835   -2.5353   -0.9821 H         1 <0>         0.0802
     36 H8          2.6450   -3.8040   -0.5432 H         1 <0>         0.0840
     37 H9          2.8199   -2.3825   -1.6059 H         1 <0>         0.0460
     38 H10         4.1655   -0.5246   -0.8540 H         1 <0>         0.0715
     39 H11         4.3085   -0.2507    0.8951 H         1 <0>         0.0884
     40 H12         6.8027   -2.6631    1.1769 H         1 <0>         0.0890
     41 H13         6.0350   -1.0926    0.8415 H         1 <0>         0.0818
     42 H14         4.4495   -2.4735    2.7272 H         1 <0>         0.4232
     43 H15         7.0616   -0.5520    5.7449 H         1 <0>         0.4213
     44 H16         4.7084   -0.3625    7.2952 H         1 <0>         0.1227
     45 H17         5.4761   -1.9329    7.6307 H         1 <0>         0.1228
     46 H18         5.9782   -4.7628   -1.5581 H         1 <0>         0.1500
     47 H19         6.6349   -3.7685   -3.9821 H         1 <0>         0.1500
     48 H20         6.0353   -1.2178   -3.9536 H         1 <0>         0.2029
@<TRIPOS>BOND
     1    1    6 ar
     2    1    2 ar
     3    1   30 1
     4    2    3 ar
     5    2   31 1
     6    3    4 ar
     7    3   32 1
     8    4   10 1
     9    4    5 ar
    10    5    6 ar
    11    5    7 1
    12    6   33 1
    13    7    8 1
    14    7   34 1
    15    7   35 1
    16    8    9 1
    17    8   36 1
    18    8   37 1
    19    9   10 1
    20    9   11 1
    21   10   38 1
    22   10   39 1
    23   11   12 1
    24   11   13 1
    25   11   25 1
    26   13   14 1
    27   13   40 1
    28   13   41 1
    29   14   15 am
    30   14   42 1
    31   15   16 2
    32   15   17 1
    33   17   18 2
    34   17   19 am
    35   19   20 1
    36   19   43 1
    37   20   21 1
    38   20   44 1
    39   20   45 1
    40   21   22 1
    41   21   23 1
    42   21   24 1
    43   25   29 1
    44   25   26 2
    45   26   27 1
    46   26   46 1
    47   27   28 2
    48   27   47 1
    49   28   29 1
    50   28   48 1
@<TRIPOS>MOLECULE
ZINC62008842
   45    46     0     0     0
SMALL
USER_CHARGES

@<TRIPOS>ATOM
      1 C1         -1.0103    1.4555   -0.4527 C.3       1 <0>        -0.6506
      2 S1          0.0042    0.0203   -0.0039 S.o2      1 <0>         2.5023
      3 O1          1.0330    0.4101    0.8955 O.2       1 <0>        -0.9363
      4 O2         -0.8270   -1.0953    0.2858 O.2       1 <0>        -0.9368
      5 C2          0.8469   -0.4202   -1.4873 C.ar      1 <0>        -0.6745
      6 C3          0.2714   -1.3190   -2.3668 C.ar      1 <0>        -0.0011
      7 C4          0.9291   -1.6665   -3.5303 C.ar      1 <0>        -0.1601
      8 C5          2.1701   -1.1116   -3.8171 C.ar      1 <0>         0.1979
      9 C6          2.7451   -0.2087   -2.9315 C.ar      1 <0>        -0.1425
     10 C7          2.0797    0.1380   -1.7722 C.ar      1 <0>        -0.0013
     11 N1          2.8386   -1.4613   -4.9932 N.am      1 <0>        -0.6482
     12 C8          4.1848   -1.5228   -5.0103 C.2       1 <0>         0.5101
     13 O3          4.8125   -1.3688   -3.9829 O.2       1 <0>        -0.4853
     14 C9          4.9044   -1.7804   -6.2935 C.2       1 <0>         0.5161
     15 O4          4.2768   -1.9344   -7.3207 O.2       1 <0>        -0.5080
     16 N2          6.2506   -1.8420   -6.3106 N.am      1 <0>        -0.6931
     17 C10         6.9564   -2.0947   -7.5693 C.3       1 <0>         0.1475
     18 C11         7.1535   -0.7747   -8.3174 C.3       1 <0>        -0.1277
     19 C12         7.9774    0.1827   -7.4540 C.3       1 <0>        -0.1254
     20 C13         9.3413   -0.4437   -7.1571 C.3       1 <0>        -0.1165
     21 C14         9.1442   -1.7637   -6.4089 C.3       1 <0>        -0.1239
     22 C15         8.3203   -2.7212   -7.2723 C.3       1 <0>        -0.1421
     23 C16         8.1232   -4.0411   -6.5241 C.3       1 <0>         0.4523
     24 F1          7.3698   -4.9166   -7.3136 F         1 <0>        -0.1797
     25 F2          9.3703   -4.6140   -6.2526 F         1 <0>        -0.1786
     26 F3          7.4492   -3.7998   -5.3222 F         1 <0>        -0.1785
     27 H1         -0.3652    2.2608   -0.8043 H         1 <0>         0.1316
     28 H2         -1.7060    1.1757   -1.2438 H         1 <0>         0.1316
     29 H3         -1.5692    1.7926    0.4202 H         1 <0>         0.1334
     30 H4         -0.6933   -1.7499   -2.1433 H         1 <0>         0.1495
     31 H5          0.4795   -2.3690   -4.2164 H         1 <0>         0.1406
     32 H6          3.7097    0.2245   -3.1514 H         1 <0>         0.1448
     33 H7          2.5244    0.8427   -1.0851 H         1 <0>         0.1485
     34 H8          2.3338   -1.6597   -5.7973 H         1 <0>         0.4278
     35 H9          6.7522   -1.7189   -5.4895 H         1 <0>         0.4165
     36 H10         6.3694   -2.7768   -8.1843 H         1 <0>         0.1098
     37 H11         7.6786   -0.9627   -9.2539 H         1 <0>         0.0843
     38 H12         6.1818   -0.3284   -8.5290 H         1 <0>         0.0801
     39 H13         8.1178    1.1231   -7.9870 H         1 <0>         0.0732
     40 H14         7.4523    0.3708   -6.5176 H         1 <0>         0.0651
     41 H15         9.8664   -0.6318   -8.0936 H         1 <0>         0.0719
     42 H16         9.9282    0.2384   -6.5420 H         1 <0>         0.0765
     43 H17        10.1159   -2.2100   -6.1974 H         1 <0>         0.0870
     44 H18         8.6191   -1.5757   -5.4725 H         1 <0>         0.0756
     45 H19         8.8454   -2.9092   -8.2088 H         1 <0>         0.1361
@<TRIPOS>BOND
     1    1    2 1
     2    1   27 1
     3    1   28 1
     4    1   29 1
     5    2    3 2
     6    2    4 2
     7    2    5 1
     8    5   10 ar
     9    5    6 ar
    10    6    7 ar
    11    6   30 1
    12    7    8 ar
    13    7   31 1
    14    8    9 ar
    15    8   11 1
    16    9   10 ar
    17    9   32 1
    18   10   33 1
    19   11   12 am
    20   11   34 1
    21   12   13 2
    22   12   14 1
    23   14   15 2
    24   14   16 am
    25   16   17 1
    26   16   35 1
    27   17   22 1
    28   17   18 1
    29   17   36 1
    30   18   19 1
    31   18   37 1
    32   18   38 1
    33   19   20 1
    34   19   39 1
    35   19   40 1
    36   20   21 1
    37   20   41 1
    38   20   42 1
    39   21   22 1
    40   21   43 1
    41   21   44 1
    42   22   23 1
    43   22   45 1
    44   23   24 1
    45   23   25 1
    46   23   26 1
@<TRIPOS>MOLECULE
ZINC65996313
   47    49     0     0     0
SMALL
USER_CHARGES

@<TRIPOS>ATOM
      1 C1          0.0672    0.7036   -0.3903 C.3       1 <0>        -0.1606
      2 C2         -0.2123   -0.7804   -0.1441 C.3       1 <0>         0.1870
      3 C3          0.2687   -1.5846   -1.3244 C.ar      1 <0>        -0.1242
      4 C4          1.6101   -1.8977   -1.4453 C.ar      1 <0>        -0.0816
      5 C5          2.0541   -2.6346   -2.5257 C.ar      1 <0>        -0.1512
      6 C6          1.1517   -3.0616   -3.4910 C.ar      1 <0>         0.1703
      7 C7         -0.1949   -2.7460   -3.3664 C.ar      1 <0>        -0.1540
      8 C8         -0.6333   -2.0129   -2.2811 C.ar      1 <0>        -0.0745
      9 N1          1.5984   -3.8080   -4.5870 N.am      1 <0>        -0.5613
     10 C9          0.7167   -4.4038   -5.5978 C.3       1 <0>         0.0932
     11 C10         1.6300   -4.7316   -6.7998 C.3       1 <0>        -0.1319
     12 C11         3.0070   -4.8924   -6.1148 C.3       1 <0>        -0.1540
     13 C12         2.8904   -4.0665   -4.8527 C.2       1 <0>         0.5152
     14 O1          3.8265   -3.6941   -4.1773 O.2       1 <0>        -0.5067
     15 N2          0.4927   -1.2163    1.0638 N.am      1 <0>        -0.6910
     16 C13        -0.0732   -1.0416    2.2744 C.2       1 <0>         0.5184
     17 O2         -1.1669   -0.5232    2.3639 O.2       1 <0>        -0.5122
     18 C14         0.6455   -1.4860    3.5058 C.2       1 <0>         0.5012
     19 O3          1.7394   -2.0045    3.4163 O.2       1 <0>        -0.4803
     20 N3          0.0796   -1.3113    4.7164 N.am      1 <0>        -0.6409
     21 C15         0.7691   -1.6928    5.8727 C.ar      1 <0>         0.0691
     22 C16         0.0789   -2.2470    6.9452 C.ar      1 <0>         0.1113
     23 C17         0.7644   -2.6227    8.0864 C.ar      1 <0>        -0.1455
     24 C18         2.1340   -2.4476    8.1617 C.ar      1 <0>        -0.0685
     25 C19         2.8241   -1.8965    7.0977 C.ar      1 <0>        -0.1464
     26 C20         2.1472   -1.5241    5.9503 C.ar      1 <0>         0.1317
     27 F1          2.8232   -0.9914    4.9089 F         1 <0>        -0.1093
     28 F2         -1.2593   -2.4177    6.8729 F         1 <0>        -0.1248
     29 H1          1.1387    0.8548   -0.5205 H         1 <0>         0.0629
     30 H2         -0.4574    1.0279   -1.2890 H         1 <0>         0.0742
     31 H3         -0.2807    1.2853    0.4634 H         1 <0>         0.0666
     32 H4         -1.2839   -0.9316   -0.0139 H         1 <0>         0.1031
     33 H5          2.3114   -1.5653   -0.6942 H         1 <0>         0.1262
     34 H6          3.1021   -2.8782   -2.6199 H         1 <0>         0.1575
     35 H7         -0.8992   -3.0763   -4.1156 H         1 <0>         0.1293
     36 H8         -1.6810   -1.7705   -2.1815 H         1 <0>         0.1314
     37 H9          0.2610   -5.3153   -5.2107 H         1 <0>         0.0836
     38 H10        -0.0541   -3.6918   -5.8928 H         1 <0>         0.0886
     39 H11         1.3230   -5.6601   -7.2812 H         1 <0>         0.0985
     40 H12         1.6438   -3.9091   -7.5149 H         1 <0>         0.0873
     41 H13         3.1936   -5.9391   -5.8745 H         1 <0>         0.1116
     42 H14         3.7986   -4.4995   -6.7528 H         1 <0>         0.1092
     43 H15         1.3668   -1.6307    0.9923 H         1 <0>         0.4136
     44 H16        -0.8058   -0.9211    4.7862 H         1 <0>         0.4287
     45 H17         0.2292   -3.0532    8.9198 H         1 <0>         0.1506
     46 H18         2.6662   -2.7417    9.0543 H         1 <0>         0.1492
     47 H19         3.8937   -1.7610    7.1608 H         1 <0>         0.1497
@<TRIPOS>BOND
     1    1    2 1
     2    1   29 1
     3    1   30 1
     4    1   31 1
     5    2    3 1
     6    2   15 1
     7    2   32 1
     8    3    8 ar
     9    3    4 ar
    10    4    5 ar
    11    4   33 1
    12    5    6 ar
    13    5   34 1
    14    6    7 ar
    15    6    9 1
    16    7    8 ar
    17    7   35 1
    18    8   36 1
    19    9   13 am
    20    9   10 1
    21   10   11 1
    22   10   37 1
    23   10   38 1
    24   11   12 1
    25   11   39 1
    26   11   40 1
    27   12   13 1
    28   12   41 1
    29   12   42 1
    30   13   14 2
    31   15   16 am
    32   15   43 1
    33   16   17 2
    34   16   18 1
    35   18   19 2
    36   18   20 am
    37   20   21 1
    38   20   44 1
    39   21   26 ar
    40   21   22 ar
    41   22   23 ar
    42   22   28 1
    43   23   24 ar
    44   23   45 1
    45   24   25 ar
    46   24   46 1
    47   25   26 ar
    48   25   47 1
    49   26   27 1
@<TRIPOS>MOLECULE
ZINC67496072
   39    40     0     0     0
SMALL
USER_CHARGES

@<TRIPOS>ATOM
      1 C1         -0.0188    1.5048    0.0046 C.3       1 <0>        -0.0760
      2 C2          0.0052   -0.0020   -0.0004 C.2       1 <0>        -0.1231
      3 C3         -1.0340   -0.8723    0.0078 C.2       1 <0>        -0.1745
      4 C4         -0.7718   -2.2294   -0.0000 C.2       1 <0>        -0.1147
      5 C5          0.5167   -2.6499   -0.0156 C.2       1 <0>        -0.1929
      6 S1          1.4095   -1.1040   -0.0266 S.3       1 <0>         0.0558
      7 C6          1.0557   -4.0572   -0.0266 C.3       1 <0>         0.2083
      8 N1          1.2152   -4.5082   -1.4113 N.am      1 <0>        -0.6942
      9 C7          1.6864   -5.7447   -1.6672 C.2       1 <0>         0.5132
     10 O1          1.9785   -6.4845   -0.7506 O.2       1 <0>        -0.5095
     11 C8          1.8491   -6.2045   -3.0789 C.2       1 <0>         0.5122
     12 O2          1.5569   -5.4646   -3.9956 O.2       1 <0>        -0.4962
     13 N2          2.3203   -7.4410   -3.3348 N.am      1 <0>        -0.6434
     14 C9          2.3814   -7.9069   -4.6507 C.ar      1 <0>         0.1204
     15 C10         2.6839   -7.0310   -5.6861 C.ar      1 <0>        -0.0544
     16 C11         2.7434   -7.4947   -6.9853 C.ar      1 <0>        -0.1174
     17 C12         2.5024   -8.8293   -7.2567 C.ar      1 <0>        -0.0204
     18 C13         2.2007   -9.7036   -6.2288 C.ar      1 <0>        -0.6397
     19 C14         2.1456   -9.2478   -4.9261 C.ar      1 <0>        -0.0330
     20 S2          1.8935  -11.4026   -6.5803 S.o2      1 <0>         2.4777
     21 O3          1.0568  -11.8465   -5.5210 O.2       1 <0>        -0.8863
     22 O4          1.4305  -11.4170   -7.9237 O.2       1 <0>        -0.8847
     23 C15         3.5179  -12.2025   -6.4707 C.3       1 <0>        -0.2097
     24 F1          4.3844  -11.6288   -7.4073 F         1 <0>        -0.1631
     25 F2          4.0386  -12.0262   -5.1843 F         1 <0>        -0.1638
     26 H1          1.0028    1.8845   -0.0104 H         1 <0>         0.0748
     27 H2         -0.5524    1.8626   -0.8760 H         1 <0>         0.0845
     28 H3         -0.5242    1.8572    0.9037 H         1 <0>         0.0845
     29 H4         -2.0516   -0.5107    0.0206 H         1 <0>         0.1367
     30 H5         -1.5815   -2.9441    0.0066 H         1 <0>         0.1362
     31 H6          2.0223   -4.0800    0.4766 H         1 <0>         0.0920
     32 H7          0.3602   -4.7167    0.4925 H         1 <0>         0.0998
     33 H8          0.9817   -3.9169   -2.1439 H         1 <0>         0.4171
     34 H9          2.6169   -8.0076   -2.6055 H         1 <0>         0.4280
     35 H10         2.8718   -5.9886   -5.4750 H         1 <0>         0.1515
     36 H11         2.9781   -6.8143   -7.7906 H         1 <0>         0.1449
     37 H12         2.5497   -9.1894   -8.2738 H         1 <0>         0.1500
     38 H13         1.9149   -9.9322   -4.1232 H         1 <0>         0.1518
     39 H14         3.4131  -13.2676   -6.6774 H         1 <0>         0.1579
@<TRIPOS>BOND
     1    1    2 1
     2    1   26 1
     3    1   27 1
     4    1   28 1
     5    2    6 1
     6    2    3 2
     7    3    4 1
     8    3   29 1
     9    4    5 2
    10    4   30 1
    11    5    6 1
    12    5    7 1
    13    7    8 1
    14    7   31 1
    15    7   32 1
    16    8    9 am
    17    8   33 1
    18    9   10 2
    19    9   11 1
    20   11   12 2
    21   11   13 am
    22   13   14 1
    23   13   34 1
    24   14   19 ar
    25   14   15 ar
    26   15   16 ar
    27   15   35 1
    28   16   17 ar
    29   16   36 1
    30   17   18 ar
    31   17   37 1
    32   18   19 ar
    33   18   20 1
    34   19   38 1
    35   20   21 2
    36   20   22 2
    37   20   23 1
    38   23   24 1
    39   23   25 1
    40   23   39 1
@<TRIPOS>MOLECULE
ZINC11117039
   56    58     0     0     0
SMALL
USER_CHARGES
1-[3-acetylamino-3-(2-thienyl)propanoyl]-N-isopropyl-3,4-dihydro-2H-quinoline-5-carboxamide
@<TRIPOS>ATOM
      1 C1         -4.1373   -1.4414   -1.3174 C.3       1 <0>        -0.1646
      2 C2         -3.6660   -1.2035    0.1186 C.3       1 <0>         0.1366
      3 C3         -3.4442   -2.5492    0.8121 C.3       1 <0>        -0.1625
      4 N1         -2.4097   -0.4500    0.1018 N.am      1 <0>        -0.7231
      5 C4         -2.4319    0.8953    0.0233 C.2       1 <0>         0.5614
      6 O1         -3.4941    1.4834   -0.0335 O.2       1 <0>        -0.5305
      7 C5         -1.1640    1.6559    0.0063 C.ar      1 <0>        -0.1238
      8 C6          0.0543    0.9795   -0.0577 C.ar      1 <0>        -0.1031
      9 C7          1.2371    1.6896   -0.0782 C.ar      1 <0>        -0.1107
     10 C8          1.2168    3.0704   -0.0284 C.ar      1 <0>        -0.1217
     11 C9          0.0069    3.7535    0.0416 C.ar      1 <0>         0.1443
     12 C10        -1.1859    3.0528    0.0602 C.ar      1 <0>        -0.0505
     13 C11        -2.5140    3.7588    0.1300 C.3       1 <0>        -0.0836
     14 C12        -2.3393    5.1758    0.6758 C.3       1 <0>        -0.1391
     15 C13        -1.2391    5.8833   -0.1262 C.3       1 <0>         0.0957
     16 N2          0.0172    5.1547    0.0960 N.am      1 <0>        -0.5514
     17 C14         1.1607    5.8219    0.3483 C.2       1 <0>         0.5153
     18 O2          2.1672    5.2115    0.6407 O.2       1 <0>        -0.5015
     19 C15         1.1887    7.3265    0.2673 C.3       1 <0>        -0.1466
     20 C16         2.5959    7.8289    0.5965 C.3       1 <0>         0.2505
     21 H1          3.3177    7.3447   -0.0613 H         1 <0>         0.1187
     22 C17         2.6561    9.3213    0.3963 C.2       1 <0>        -0.1607
     23 C18         3.1533   10.0226   -0.6516 C.2       1 <0>        -0.1391
     24 C19         3.0985   11.4035   -0.6205 C.2       1 <0>        -0.1562
     25 C20         2.5588   12.0157    0.4617 C.2       1 <0>        -0.1698
     26 S1          2.0982   10.6246    1.4814 S.3       1 <0>         0.0414
     27 N3          2.9146    7.5098    1.9904 N.am      1 <0>        -0.7201
     28 C21         4.1998    7.3796    2.3749 C.2       1 <0>         0.5217
     29 O3          5.0924    7.5265    1.5671 O.2       1 <0>        -0.5372
     30 C22         4.5277    7.0514    3.8088 C.3       1 <0>        -0.1723
     31 H2         -3.3804   -2.0089   -1.8589 H         1 <0>         0.0567
     32 H3         -5.0719   -2.0021   -1.3049 H         1 <0>         0.0670
     33 H4         -4.2952   -0.4827   -1.8115 H         1 <0>         0.0610
     34 H5         -4.4228   -0.6360    0.6601 H         1 <0>         0.0898
     35 H6         -3.1085   -2.3797    1.8352 H         1 <0>         0.0623
     36 H7         -4.3789   -3.1098    0.8246 H         1 <0>         0.0748
     37 H8         -2.6874   -3.1166    0.2706 H         1 <0>         0.0615
     38 H9         -1.5620   -0.9193    0.1471 H         1 <0>         0.3994
     39 H10         0.0715   -0.0997   -0.0958 H         1 <0>         0.1248
     40 H11         2.1799    1.1656   -0.1330 H         1 <0>         0.1324
     41 H12         2.1451    3.6222   -0.0434 H         1 <0>         0.1711
     42 H13        -3.1838    3.2012    0.7846 H         1 <0>         0.1088
     43 H14        -2.9469    3.8090   -0.8691 H         1 <0>         0.0842
     44 H15        -2.0530    5.1297    1.7266 H         1 <0>         0.0717
     45 H16        -3.2756    5.7244    0.5741 H         1 <0>         0.0897
     46 H17        -1.1349    6.9123    0.2181 H         1 <0>         0.0948
     47 H18        -1.4894    5.8727   -1.1870 H         1 <0>         0.0821
     48 H19         0.9171    7.6412   -0.7404 H         1 <0>         0.1197
     49 H20         0.4781    7.7422    0.9817 H         1 <0>         0.1078
     50 H21         3.5833    9.5101   -1.4995 H         1 <0>         0.1342
     51 H22         3.4841   11.9860   -1.4442 H         1 <0>         0.1354
     52 H23         2.4389   13.0711    0.6567 H         1 <0>         0.1862
     53 H24         2.2007    7.3923    2.6365 H         1 <0>         0.3998
     54 H25         4.5713    5.9694    3.9330 H         1 <0>         0.0953
     55 H26         5.4925    7.4863    4.0696 H         1 <0>         0.0937
     56 H27         3.7563    7.4612    4.4608 H         1 <0>         0.0787
@<TRIPOS>BOND
     1    1    2 1
     2    1   31 1
     3    1   32 1
     4    1   33 1
     5    2    3 1
     6    2    4 1
     7    2   34 1
     8    3   35 1
     9    3   36 1
    10    3   37 1
    11    4    5 am
    12    4   38 1
    13    5    6 2
    14    5    7 1
    15    7   12 ar
    16    7    8 ar
    17    8    9 ar
    18    8   39 1
    19    9   10 ar
    20    9   40 1
    21   10   11 ar
    22   10   41 1
    23   11   16 1
    24   11   12 ar
    25   12   13 1
    26   13   14 1
    27   13   42 1
    28   13   43 1
    29   14   15 1
    30   14   44 1
    31   14   45 1
    32   15   16 1
    33   15   46 1
    34   15   47 1
    35   16   17 am
    36   17   18 2
    37   17   19 1
    38   19   20 1
    39   19   48 1
    40   19   49 1
    41   20   21 1
    42   20   22 1
    43   20   27 1
    44   22   26 1
    45   22   23 2
    46   23   24 1
    47   23   50 1
    48   24   25 2
    49   24   51 1
    50   25   26 1
    51   25   52 1
    52   27   28 am
    53   27   53 1
    54   28   29 2
    55   28   30 1
    56   30   54 1
    57   30   55 1
    58   30   56 1
@<TRIPOS>MOLECULE
ZINC14884911
   52    54     0     0     0
SMALL
USER_CHARGES
(2S)-2-acetamido-N-[[(2R)-7-chloro-5-pyrimidin-5-yl-2,3-dihydrobenzofuran-2-yl]methyl]-4-methylsulfanyl-butanamide
@<TRIPOS>ATOM
      1 C1          3.7490   11.1559    2.3348 C.3       1 <0>        -0.1715
      2 C2          3.5399   10.0797    1.3008 C.2       1 <0>         0.5163
      3 O1          4.4886    9.6287    0.6945 O.2       1 <0>        -0.5112
      4 N1          2.2987    9.6184    1.0497 N.am      1 <0>        -0.7261
      5 C3          2.0954    8.5723    0.0445 C.3       1 <0>         0.1420
      6 H1          1.0344    8.3304   -0.0187 H         1 <0>         0.1111
      7 C4          2.5869    9.0700   -1.3162 C.3       1 <0>        -0.1176
      8 C5          1.7196   10.2446   -1.7733 C.3       1 <0>        -0.0801
      9 S1          2.3024   10.8347   -3.3866 S.3       1 <0>        -0.2600
     10 C6          1.1851   12.2082   -3.7812 C.3       1 <0>        -0.1211
     11 C7          2.8689    7.3403    0.4382 C.2       1 <0>         0.5045
     12 O2          3.7893    7.4272    1.2231 O.2       1 <0>        -0.5021
     13 N2          2.5378    6.1419   -0.0821 N.am      1 <0>        -0.7307
     14 C8          3.2898    4.9442    0.3006 C.3       1 <0>         0.1282
     15 C9          2.7150    3.7271   -0.4267 C.3       1 <0>         0.0675
     16 H2          2.7318    3.8803   -1.5057 H         1 <0>         0.1018
     17 C10         3.4888    2.4436   -0.0433 C.3       1 <0>        -0.1014
     18 C11         2.3833    1.4054   -0.0217 C.ar      1 <0>        -0.1538
     19 C12         2.4107    0.0302   -0.0266 C.ar      1 <0>        -0.0510
     20 C13         1.2161   -0.6890   -0.0140 C.ar      1 <0>        -0.0553
     21 C14         0.0021   -0.0041    0.0020 C.ar      1 <0>        -0.0648
     22 C15        -0.0166    1.3735    0.0096 C.ar      1 <0>        -0.0487
     23 C16         1.1773    2.0953    0.0021 C.ar      1 <0>         0.1264
     24 O3          1.3808    3.4416    0.0264 O.3       1 <0>        -0.2837
     25 Cl1        -1.5344    2.2160    0.0213 Cl        1 <0>        -0.0508
     26 C17         1.2370   -2.1725   -0.0181 C.ar      1 <0>        -0.1432
     27 C18         2.4455   -2.8734   -0.0400 C.ar      1 <0>         0.1575
     28 N3          2.4188   -4.1951   -0.0377 N.ar      1 <0>        -0.5125
     29 C19         1.2748   -4.8499   -0.0264 C.ar      1 <0>         0.2930
     30 N4          0.1127   -4.2276   -0.0107 N.ar      1 <0>        -0.5120
     31 C20         0.0487   -2.9073   -0.0061 C.ar      1 <0>         0.1573
     32 H3          3.9203   10.6962    3.3081 H         1 <0>         0.0935
     33 H4          4.6142   11.7597    2.0609 H         1 <0>         0.0931
     34 H5          2.8639   11.7901    2.3832 H         1 <0>         0.0770
     35 H6          1.5399    9.9791    1.5346 H         1 <0>         0.4054
     36 H7          3.6237    9.3954   -1.2311 H         1 <0>         0.1051
     37 H8          2.5182    8.2624   -2.0449 H         1 <0>         0.0844
     38 H9          0.6828    9.9191   -1.8583 H         1 <0>         0.0814
     39 H10         1.7883   11.0522   -1.0445 H         1 <0>         0.0825
     40 H11         0.1595   11.8415   -3.8241 H         1 <0>         0.0766
     41 H12         1.2650   12.9746   -3.0103 H         1 <0>         0.0763
     42 H13         1.4594   12.6339   -4.7465 H         1 <0>         0.1034
     43 H14         1.8017    6.0723   -0.7099 H         1 <0>         0.4038
     44 H15         3.2114    4.7946    1.3774 H         1 <0>         0.0809
     45 H16         4.3373    5.0700    0.0266 H         1 <0>         0.0941
     46 H17         3.9476    2.5446    0.9403 H         1 <0>         0.1033
     47 H18         4.2375    2.1998   -0.7970 H         1 <0>         0.1049
     48 H19         3.3560   -0.4919   -0.0405 H         1 <0>         0.1382
     49 H20        -0.9268   -0.5551    0.0089 H         1 <0>         0.1469
     50 H21         3.3866   -2.3437   -0.0539 H         1 <0>         0.1704
     51 H22         1.2900   -5.9298   -0.0298 H         1 <0>         0.2002
     52 H23        -0.9070   -2.4045    0.0071 H         1 <0>         0.1705
@<TRIPOS>BOND
     1    1    2 1
     2    1   32 1
     3    1   33 1
     4    1   34 1
     5    2    3 2
     6    2    4 am
     7    4    5 1
     8    4   35 1
     9    5    6 1
    10    5    7 1
    11    5   11 1
    12    7    8 1
    13    7   36 1
    14    7   37 1
    15    8    9 1
    16    8   38 1
    17    8   39 1
    18    9   10 1
    19   10   40 1
    20   10   41 1
    21   10   42 1
    22   11   12 2
    23   11   13 am
    24   13   14 1
    25   13   43 1
    26   14   15 1
    27   14   44 1
    28   14   45 1
    29   15   16 1
    30   15   24 1
    31   15   17 1
    32   17   18 1
    33   17   46 1
    34   17   47 1
    35   18   23 ar
    36   18   19 ar
    37   19   20 ar
    38   19   48 1
    39   20   21 ar
    40   20   26 1
    41   21   22 ar
    42   21   49 1
    43   22   23 ar
    44   22   25 1
    45   23   24 1
    46   26   31 ar
    47   26   27 ar
    48   27   28 ar
    49   27   50 1
    50   28   29 ar
    51   29   30 ar
    52   29   51 1
    53   30   31 ar
    54   31   52 1
@<TRIPOS>MOLECULE
ZINC23365224
   49    51     0     0     0
SMALL
USER_CHARGES
3-[3-[2-[(2-bromophenyl)methyl-methyl-amino]-2-oxo-ethyl]sulfanyl-5-cyclopropyl-1,2,4-triazol-4-yl]propanamide
@<TRIPOS>ATOM
      1 C1          7.1261    5.8487    0.7386 C.3       1 <0>         0.0544
      2 N1          7.8689    4.8990   -0.0936 N.am      1 <0>        -0.5981
      3 C2          9.3164    5.0490   -0.2621 C.3       1 <0>         0.1471
      4 C3          9.5989    5.7901   -1.5436 C.ar      1 <0>        -0.0839
      5 C4          9.8353    5.0878   -2.7106 C.ar      1 <0>        -0.0862
      6 C5         10.0901    5.7674   -3.8869 C.ar      1 <0>        -0.1062
      7 C6         10.1181    7.1497   -3.8949 C.ar      1 <0>        -0.1084
      8 C7          9.8870    7.8526   -2.7277 C.ar      1 <0>        -0.0950
      9 C8          9.6272    7.1728   -1.5511 C.ar      1 <0>        -0.0799
     10 Br1         9.3115    8.1339    0.0466 Br        1 <0>        -0.0459
     11 C9          7.2206    3.8874   -0.7041 C.2       1 <0>         0.5361
     12 O1          7.8356    3.1012   -1.3930 O.2       1 <0>        -0.5206
     13 C10         5.7316    3.7331   -0.5307 C.3       1 <0>        -0.1473
     14 S1          5.1611    2.2931   -1.4672 S.3       1 <0>         0.0779
     15 C11         3.4395    2.3494   -1.0964 C.2       1 <0>         0.1367
     16 N2          2.8328    3.2329   -0.3383 N.2       1 <0>        -0.2927
     17 N3          1.5743    2.9764   -0.2906 N.2       1 <0>        -0.2890
     18 C12         1.3064    1.9176   -1.0011 C.2       1 <0>         0.1957
     19 N4          2.4841    1.4822   -1.5430 N.pl3     1 <0>        -0.4613
     20 C13         2.6800    0.3254   -2.4203 C.3       1 <0>         0.1178
     21 C14         2.5268    0.7599   -3.8792 C.3       1 <0>        -0.1618
     22 C15         2.7283   -0.4301   -4.7816 C.2       1 <0>         0.5264
     23 O2          2.9706   -1.5186   -4.3048 O.2       1 <0>        -0.5484
     24 N5          2.6394   -0.2847   -6.1186 N.am      1 <0>        -0.8747
     25 C16        -0.0510    1.2923   -1.1951 C.3       1 <0>        -0.1729
     26 C17        -1.2009    1.8188   -0.3341 C.3       1 <0>        -0.0972
     27 C18        -1.1438    2.1576   -1.8258 C.3       1 <0>        -0.0985
     28 H1          6.0605    5.5757    0.7445 H         1 <0>         0.0836
     29 H2          7.2424    6.8633    0.3299 H         1 <0>         0.0770
     30 H3          7.5177    5.8201    1.7661 H         1 <0>         0.0717
     31 H4          9.7277    5.6147    0.5869 H         1 <0>         0.1008
     32 H5          9.7858    4.0550   -0.3022 H         1 <0>         0.0993
     33 H6          9.8177    4.0079   -2.7039 H         1 <0>         0.1394
     34 H7         10.2711    5.2185   -4.7992 H         1 <0>         0.1308
     35 H8         10.3209    7.6803   -4.8135 H         1 <0>         0.1326
     36 H9          9.9095    8.9323   -2.7339 H         1 <0>         0.1337
     37 H10         5.4992    3.5928    0.5353 H         1 <0>         0.1292
     38 H11         5.2238    4.6359   -0.9009 H         1 <0>         0.1280
     39 H12         3.6880   -0.0865   -2.2643 H         1 <0>         0.1102
     40 H13         1.9293   -0.4438   -2.1861 H         1 <0>         0.1105
     41 H14         1.5188    1.1718   -4.0352 H         1 <0>         0.1038
     42 H15         3.2775    1.5290   -4.1135 H         1 <0>         0.1061
     43 H16         2.7865   -1.1533   -6.7773 H         1 <0>         0.4277
     44 H17         2.4198    0.7026   -6.5511 H         1 <0>         0.4230
     45 H18         0.3831    0.3032   -1.4032 H         1 <0>         0.1255
     46 H19        -1.7507    0.9714    0.1014 H         1 <0>         0.1123
     47 H20        -0.7966    2.4473    0.4731 H         1 <0>         0.1175
     48 H21        -0.6923    3.0660   -2.2512 H         1 <0>         0.1030
     49 H22        -1.6464    1.5902   -2.6229 H         1 <0>         0.1101
@<TRIPOS>BOND
     1    1    2 1
     2    1   28 1
     3    1   29 1
     4    1   30 1
     5    2    3 1
     6    2   11 am
     7    3    4 1
     8    3   31 1
     9    3   32 1
    10    4    9 ar
    11    4    5 ar
    12    5    6 ar
    13    5   33 1
    14    6    7 ar
    15    6   34 1
    16    7    8 ar
    17    7   35 1
    18    8    9 ar
    19    8   36 1
    20    9   10 1
    21   11   12 2
    22   11   13 1
    23   13   14 1
    24   13   37 1
    25   13   38 1
    26   14   15 1
    27   15   19 1
    28   15   16 2
    29   16   17 1
    30   17   18 2
    31   18   19 1
    32   18   25 1
    33   19   20 1
    34   20   21 1
    35   20   39 1
    36   20   40 1
    37   21   22 1
    38   21   41 1
    39   21   42 1
    40   22   23 2
    41   22   24 am
    42   24   43 1
    43   24   44 1
    44   25   27 1
    45   25   26 1
    46   25   45 1
    47   26   27 1
    48   26   46 1
    49   26   47 1
    50   27   48 1
    51   27   49 1
@<TRIPOS>MOLECULE
ZINC06394977
   47    49     0     0     0
SMALL
USER_CHARGES

@<TRIPOS>ATOM
      1 C1         -0.0187    1.5258    0.0104 C.3       1 <0>        -0.1147
      2 C2          0.0021   -0.0041    0.0020 C.3       1 <0>        -0.1200
      3 C3          0.7213   -0.6894   -1.2040 C.3       1 <0>        -0.1131
      4 C4          0.9191   -2.1484   -0.7256 C.3       1 <0>        -0.1401
      5 C5          0.3239   -2.1563    0.7169 C.3       1 <0>         0.0874
      6 C6          0.7235   -0.7174    1.2042 C.3       1 <0>        -0.0577
      7 C7          0.1129   -0.3456    2.5569 C.3       1 <0>        -0.1474
      8 C8          2.2397   -0.5135    1.1810 C.3       1 <0>        -0.1392
      9 O1         -1.1061   -1.9844    0.5200 O.3       1 <0>        -0.3385
     10 C9         -1.3573   -0.7162    0.0896 C.2       1 <0>         0.4909
     11 O2         -2.4329   -0.2442   -0.1937 O.2       1 <0>        -0.4311
     12 C10         0.7498   -3.3012    1.5996 C.2       1 <0>         0.5632
     13 O3          1.6949   -3.1706    2.3483 O.2       1 <0>        -0.5062
     14 N1          0.0803   -4.4701    1.5569 N.am      1 <0>        -0.5048
     15 N2          0.4762   -5.5344    2.3775 N.am      1 <0>        -0.5203
     16 C11        -0.1933   -6.7034    2.3349 C.2       1 <0>         0.5176
     17 O4         -1.1384   -6.8340    1.5862 O.2       1 <0>        -0.4998
     18 C12         0.2326   -7.8482    3.2176 C.3       1 <0>         0.0501
     19 O5         -0.6254   -8.9685    2.9918 O.3       1 <0>        -0.2733
     20 C13        -0.3758  -10.0926    3.7144 C.ar      1 <0>         0.1422
     21 C14         0.6695  -10.1144    4.6258 C.ar      1 <0>        -0.1872
     22 C15         0.9218  -11.2576    5.3593 C.ar      1 <0>        -0.0625
     23 C16         0.1326  -12.3809    5.1856 C.ar      1 <0>        -0.0602
     24 C17        -0.9107  -12.3620    4.2773 C.ar      1 <0>        -0.0623
     25 C18        -1.1702  -11.2182    3.5453 C.ar      1 <0>        -0.0548
     26 Cl1        -2.4838  -11.1920    2.4107 Cl        1 <0>        -0.0340
     27 Cl2         0.4526  -13.8161    6.1084 Cl        1 <0>        -0.0529
     28 H1          1.0039    1.9031    0.0027 H         1 <0>         0.0764
     29 H2         -0.5459    1.8868   -0.8726 H         1 <0>         0.0741
     30 H3         -0.5289    1.8773    0.9072 H         1 <0>         0.0696
     31 H4          0.0921   -0.6593   -2.0936 H         1 <0>         0.0852
     32 H5          1.6834   -0.2150   -1.3970 H         1 <0>         0.1000
     33 H6          0.3728   -2.8388   -1.3683 H         1 <0>         0.0944
     34 H7          1.9788   -2.4029   -0.7032 H         1 <0>         0.1017
     35 H8         -0.9371   -0.6378    2.5742 H         1 <0>         0.0582
     36 H9          0.6477   -0.8650    3.3521 H         1 <0>         0.0759
     37 H10         0.1930    0.7309    2.7082 H         1 <0>         0.0768
     38 H11         2.4640    0.5516    1.2390 H         1 <0>         0.0700
     39 H12         2.6883   -1.0262    2.0319 H         1 <0>         0.0811
     40 H13         2.6469   -0.9208    0.2556 H         1 <0>         0.0674
     41 H14        -0.6756   -4.5746    0.9581 H         1 <0>         0.4408
     42 H15         1.2321   -5.4300    2.9764 H         1 <0>         0.4353
     43 H16         1.2605   -8.1248    2.9833 H         1 <0>         0.1070
     44 H17         0.1670   -7.5452    4.2625 H         1 <0>         0.1069
     45 H18         1.2862   -9.2383    4.7617 H         1 <0>         0.1483
     46 H19         1.7360  -11.2747    6.0687 H         1 <0>         0.1461
     47 H20        -1.5253  -13.2399    4.1429 H         1 <0>         0.1533
@<TRIPOS>BOND
     1    1    2 1
     2    1   28 1
     3    1   29 1
     4    1   30 1
     5    2    6 1
     6    2   10 1
     7    2    3 1
     8    3    4 1
     9    3   31 1
    10    3   32 1
    11    4    5 1
    12    4   33 1
    13    4   34 1
    14    5    6 1
    15    5    9 1
    16    5   12 1
    17    6    7 1
    18    6    8 1
    19    7   35 1
    20    7   36 1
    21    7   37 1
    22    8   38 1
    23    8   39 1
    24    8   40 1
    25    9   10 1
    26   10   11 2
    27   12   13 2
    28   12   14 am
    29   14   15 1
    30   14   41 1
    31   15   16 am
    32   15   42 1
    33   16   17 2
    34   16   18 1
    35   18   19 1
    36   18   43 1
    37   18   44 1
    38   19   20 1
    39   20   25 ar
    40   20   21 ar
    41   21   22 ar
    42   21   45 1
    43   22   23 ar
    44   22   46 1
    45   23   24 ar
    46   23   27 1
    47   24   25 ar
    48   24   47 1
    49   25   26 1
@<TRIPOS>MOLECULE
ZINC65077925
   52    54     0     0     0
SMALL
USER_CHARGES

@<TRIPOS>ATOM
      1 C1         -0.0239    1.5054   -0.0096 C.3       1 <0>        -0.1444
      2 C2          0.0037   -0.0243   -0.0092 C.3       1 <0>        -0.0568
      3 H1         -1.0145   -0.4132   -0.0023 H         1 <0>         0.1294
      4 C3          0.7501   -0.5345   -1.2541 C.3       1 <0>        -0.1500
      5 C4          1.1823   -1.9576   -1.0599 C.2       1 <0>         0.5318
      6 O1          0.4344   -2.8559   -1.3840 O.2       1 <0>        -0.5140
      7 N1          2.3778   -2.2556   -0.5361 N.am      1 <0>        -0.6693
      8 C5          3.1650   -1.2516    0.0482 C.ar      1 <0>         0.1533
      9 C6          4.4927   -1.0945   -0.3136 C.ar      1 <0>        -0.0381
     10 C7          5.2499   -0.0960    0.2729 C.ar      1 <0>        -0.6235
     11 C8          4.6877    0.7442    1.2167 C.ar      1 <0>        -0.0321
     12 C9          3.3626    0.5925    1.5841 C.ar      1 <0>        -0.0689
     13 C10         2.6002   -0.4067    1.0010 C.ar      1 <0>        -0.0777
     14 S1          0.9082   -0.6280    1.4555 S.3       1 <0>        -0.1298
     15 S2          6.9394    0.1059   -0.1847 S.o2      1 <0>         2.4975
     16 O2          7.5512    0.7122    0.9455 O.2       1 <0>        -0.9233
     17 O3          7.3509   -1.1797   -0.6287 O.2       1 <0>        -0.9254
     18 C11         6.9095    1.2679   -1.5774 C.3       1 <0>        -0.5963
     19 C12         8.3386    1.5199   -2.0622 C.3       1 <0>        -0.1353
     20 C13         8.3138    2.4851   -3.2192 C.2       1 <0>         0.5218
     21 O4          7.2570    2.9280   -3.6169 O.2       1 <0>        -0.5074
     22 N2          9.4658    2.8564   -3.8119 N.am      1 <0>        -0.6731
     23 C14         9.4369    3.6759   -4.9461 C.ar      1 <0>         0.1280
     24 C15        10.3758    3.4981   -5.9560 C.ar      1 <0>        -0.1110
     25 C16        10.3528    4.3042   -7.0790 C.ar      1 <0>        -0.1123
     26 C17         9.3978    5.2915   -7.2064 C.ar      1 <0>        -0.0859
     27 C18         8.4484    5.4795   -6.1968 C.ar      1 <0>        -0.1551
     28 C19         8.4693    4.6601   -5.0646 C.ar      1 <0>        -0.0648
     29 C20         7.4280    6.5320   -6.3286 C.2       1 <0>         0.3931
     30 O5          6.6061    6.6928   -5.4518 O.2       1 <0>        -0.4515
     31 C21         7.4049    7.4100   -7.5533 C.3       1 <0>        -0.2006
     32 H2          0.9971    1.8872   -0.0166 H         1 <0>         0.0623
     33 H3         -0.5500    1.8591   -0.8963 H         1 <0>         0.0741
     34 H4         -0.5382    1.8598    0.8836 H         1 <0>         0.0780
     35 H5          0.0908   -0.4731   -2.1199 H         1 <0>         0.1197
     36 H6          1.6277    0.0880   -1.4283 H         1 <0>         0.0917
     37 H7          2.7011   -3.1698   -0.5603 H         1 <0>         0.4183
     38 H8          4.9351   -1.7489   -1.0500 H         1 <0>         0.1557
     39 H9          5.2857    1.5216    1.6690 H         1 <0>         0.1555
     40 H10         2.9249    1.2492    2.3213 H         1 <0>         0.1533
     41 H11         6.3192    0.8453   -2.3905 H         1 <0>         0.1468
     42 H12         6.4636    2.2091   -1.2559 H         1 <0>         0.1485
     43 H13         8.9289    1.9424   -1.2490 H         1 <0>         0.1191
     44 H14         8.7845    0.5787   -2.3837 H         1 <0>         0.1188
     45 H15        10.3151    2.5556   -3.4525 H         1 <0>         0.4162
     46 H16        11.1264    2.7273   -5.8627 H         1 <0>         0.1330
     47 H17        11.0854    4.1606   -7.8594 H         1 <0>         0.1363
     48 H18         9.3835    5.9193   -8.0851 H         1 <0>         0.1368
     49 H19         7.7363    4.7964   -4.2833 H         1 <0>         0.1510
     50 H20         6.7716    6.9548   -8.3147 H         1 <0>         0.0992
     51 H21         7.0087    8.3906   -7.2899 H         1 <0>         0.0897
     52 H22         8.4177    7.5195   -7.9410 H         1 <0>         0.0876
@<TRIPOS>BOND
     1    1    2 1
     2    1   32 1
     3    1   33 1
     4    1   34 1
     5    2    3 1
     6    2   14 1
     7    2    4 1
     8    4    5 1
     9    4   35 1
    10    4   36 1
    11    5    6 2
    12    5    7 am
    13    7    8 1
    14    7   37 1
    15    8   13 ar
    16    8    9 ar
    17    9   10 ar
    18    9   38 1
    19   10   11 ar
    20   10   15 1
    21   11   12 ar
    22   11   39 1
    23   12   13 ar
    24   12   40 1
    25   13   14 1
    26   15   16 2
    27   15   17 2
    28   15   18 1
    29   18   19 1
    30   18   41 1
    31   18   42 1
    32   19   20 1
    33   19   43 1
    34   19   44 1
    35   20   21 2
    36   20   22 am
    37   22   23 1
    38   22   45 1
    39   23   28 ar
    40   23   24 ar
    41   24   25 ar
    42   24   46 1
    43   25   26 ar
    44   25   47 1
    45   26   27 ar
    46   26   48 1
    47   27   28 ar
    48   27   29 1
    49   28   49 1
    50   29   30 2
    51   29   31 1
    52   31   50 1
    53   31   51 1
    54   31   52 1
@<TRIPOS>MOLECULE
ZINC09242413
   45    48     0     0     0
SMALL
USER_CHARGES
(5R)-5-(4-bromophenyl)-3-hydroxy-4-(4-methylbenzoyl)-1-(5-methylisoxazol-3-yl)-5H-pyrrol-2-one
@<TRIPOS>ATOM
      1 C1         -1.6897   -5.0220   -3.4465 C.3       1 <0>        -0.1158
      2 C2         -1.9326   -3.5509   -3.2276 C.ar      1 <0>        -0.0741
      3 C3         -1.5353   -2.6368   -4.1878 C.ar      1 <0>        -0.1369
      4 C4         -1.7546   -1.2890   -3.9939 C.ar      1 <0>        -0.0696
      5 C5         -2.3791   -0.8474   -2.8254 C.ar      1 <0>        -0.1434
      6 C6         -2.7727   -1.7748   -1.8583 C.ar      1 <0>        -0.0615
      7 C7         -2.5524   -3.1202   -2.0676 C.ar      1 <0>        -0.1384
      8 C8         -2.6170    0.5960   -2.6105 C.2       1 <0>         0.5057
      9 O1         -2.3637    1.3926   -3.4945 O.2       1 <0>        -0.4681
     10 C9         -3.1580    1.0672   -1.3324 C.2       1 <0>        -0.4956
     11 C10        -4.3652    1.6462   -1.1306 C.2       1 <0>         0.2725
     12 C11        -4.5150    1.9692    0.3035 C.2       1 <0>         0.5071
     13 O2         -5.4897    2.4968    0.8012 O.2       1 <0>        -0.4884
     14 N1         -3.4124    1.5933    0.9766 N.am      1 <0>        -0.5276
     15 C12        -2.4762    1.0006    0.0143 C.3       1 <0>         0.2714
     16 H1         -2.2374   -0.0320    0.3088 H         1 <0>         0.0815
     17 C13        -1.1934    1.7909   -0.0147 C.ar      1 <0>        -0.0612
     18 C14         0.0225    1.1339   -0.0474 C.ar      1 <0>        -0.1091
     19 C15         1.1991    1.8584   -0.0797 C.ar      1 <0>        -0.0905
     20 C16         1.1601    3.2411   -0.0741 C.ar      1 <0>        -0.0929
     21 C17        -0.0566    3.8981   -0.0362 C.ar      1 <0>        -0.0880
     22 C18        -1.2327    3.1727   -0.0038 C.ar      1 <0>        -0.0818
     23 Br1         2.7695    4.2328   -0.1190 Br        1 <0>        -0.0646
     24 C19        -3.1976    1.7402    2.3457 C.2       1 <0>         0.2779
     25 C20        -2.0062    1.4409    3.0590 C.2       1 <0>        -0.2439
     26 C21        -2.3060    1.7529    4.3403 C.2       1 <0>        -0.0270
     27 O3         -3.5723    2.1940    4.3413 O.3       1 <0>         0.0956
     28 N2         -4.0503    2.1867    3.2307 N.2       1 <0>        -0.3693
     29 C22        -1.3949    1.6285    5.5342 C.3       1 <0>        -0.0737
     30 O4         -5.2879    1.8899   -2.0895 O.3       1 <0>        -0.6385
     31 H2         -1.1910   -5.1711   -4.4156 H         1 <0>         0.0633
     32 H3         -2.6509   -5.5569   -3.4426 H         1 <0>         0.0687
     33 H4         -1.0499   -5.4118   -2.6411 H         1 <0>         0.0683
     34 H5         -1.0528   -2.9797   -5.0911 H         1 <0>         0.1208
     35 H6         -1.4437   -0.5767   -4.7438 H         1 <0>         0.1288
     36 H7         -3.2524   -1.4397   -0.9506 H         1 <0>         0.1321
     37 H8         -2.8603   -3.8389   -1.3226 H         1 <0>         0.1215
     38 H9          0.0528    0.0543   -0.0521 H         1 <0>         0.1314
     39 H10         2.1488    1.3450   -0.1097 H         1 <0>         0.1301
     40 H11        -0.0875    4.9776   -0.0321 H         1 <0>         0.1287
     41 H12        -2.1827    3.6856    0.0259 H         1 <0>         0.1234
     42 H13        -1.0766    1.0537    2.6687 H         1 <0>         0.1705
     43 H14        -1.9272    1.9604    6.4378 H         1 <0>         0.0822
     44 H15        -0.5039    2.2555    5.3824 H         1 <0>         0.0893
     45 H16        -1.0886    0.5788    5.6539 H         1 <0>         0.0893
@<TRIPOS>BOND
     1    1    2 1
     2    1   31 1
     3    1   32 1
     4    1   33 1
     5    2    7 ar
     6    2    3 ar
     7    3    4 ar
     8    3   34 1
     9    4    5 ar
    10    4   35 1
    11    5    6 ar
    12    5    8 1
    13    6    7 ar
    14    6   36 1
    15    7   37 1
    16    8    9 2
    17    8   10 1
    18   10   15 1
    19   10   11 2
    20   11   12 1
    21   11   30 1
    22   12   13 2
    23   12   14 am
    24   14   15 1
    25   14   24 1
    26   15   16 1
    27   15   17 1
    28   17   22 ar
    29   17   18 ar
    30   18   19 ar
    31   18   38 1
    32   19   20 ar
    33   19   39 1
    34   20   21 ar
    35   20   23 1
    36   21   22 ar
    37   21   40 1
    38   22   41 1
    39   24   28 2
    40   24   25 1
    41   25   26 2
    42   25   42 1
    43   26   27 1
    44   26   29 1
    45   27   28 1
    46   29   43 1
    47   29   44 1
    48   29   45 1
@<TRIPOS>MOLECULE
ZINC17162922
   50    53     0     0     0
SMALL
USER_CHARGES
ethyl 2-[2,5-dimethyl-3-[(E)-(4-oxo-2-thioxo-thiazolidin-5-ylidene)methyl]pyrrol-1-yl]-4,5,6,7-tetrahydrobenzothiophene-3-carboxylate
@<TRIPOS>ATOM
      1 C1         -7.0161    2.3369   -2.1811 C.3       1 <0>        -0.1546
      2 C2         -5.8452    3.3206   -2.1338 C.3       1 <0>         0.0532
      3 O1         -4.5938    2.5868   -2.1945 O.3       1 <0>        -0.3436
      4 C3         -3.4577    3.3024   -2.0679 C.2       1 <0>         0.5344
      5 O2         -3.5121    4.5073   -1.9115 O.2       1 <0>        -0.4842
      6 C4         -2.1573    2.6281   -2.1189 C.2       1 <0>        -0.1519
      7 C5         -1.5861    2.0035   -0.9385 C.2       1 <0>        -0.0770
      8 C6         -0.3827    1.4173   -1.1231 C.2       1 <0>        -0.1603
      9 S1         -0.0071    1.6841   -2.8325 S.3       1 <0>         0.1603
     10 C7         -1.4266    2.5624   -3.2969 C.2       1 <0>         0.0821
     11 N1         -1.7539    3.0763   -4.5458 N.pl3     1 <0>        -0.3715
     12 C8         -1.0075    3.9911   -5.2365 C.2       1 <0>        -0.0026
     13 C9         -1.6129    4.2630   -6.4048 C.2       1 <0>        -0.0900
     14 C10        -2.8411    3.4583   -6.4389 C.2       1 <0>        -0.1261
     15 C11        -2.8647    2.7474   -5.2556 C.2       1 <0>         0.0534
     16 C12        -3.9350    1.7772   -4.8264 C.3       1 <0>        -0.1195
     17 C13        -3.8398    3.4182   -7.5121 C.2       1 <0>         0.0395
     18 C14        -3.4513    3.5550   -8.8074 C.2       1 <0>        -0.2045
     19 C15        -2.0951    3.5960   -9.3818 C.2       1 <0>         0.5231
     20 O3         -1.1023    3.5019   -8.6830 O.3       1 <0>        -0.4878
     21 N2         -2.0092    3.7396  -10.6935 N.2       1 <0>        -0.6500
     22 C16        -3.1113    3.8431  -11.4641 C.2       1 <0>         0.3977
     23 S2         -3.2077    4.0325  -13.1628 S.2       1 <0>        -0.5773
     24 S3         -4.4456    3.7266  -10.2831 S.3       1 <0>        -0.1734
     25 C17         0.2897    4.5952   -4.7639 C.3       1 <0>        -0.0838
     26 C18         0.4407    0.7026   -0.0964 C.3       1 <0>        -0.0408
     27 C19        -0.1072    1.0543    1.2943 C.3       1 <0>        -0.1150
     28 C20        -1.6306    0.8899    1.2795 C.3       1 <0>        -0.1183
     29 C21        -2.2646    1.9895    0.4257 C.3       1 <0>        -0.0639
     30 H1         -7.9641    2.8929   -2.1351 H         1 <0>         0.0826
     31 H2         -6.9522    1.6495   -1.3247 H         1 <0>         0.0669
     32 H3         -6.9737    1.7612   -3.1174 H         1 <0>         0.0710
     33 H4         -5.9091    4.0080   -2.9902 H         1 <0>         0.0758
     34 H5         -5.8876    3.8964   -1.1975 H         1 <0>         0.0727
     35 H6         -1.2660    4.9436   -7.1682 H         1 <0>         0.1545
     36 H7         -4.7084    1.7159   -5.6062 H         1 <0>         0.0848
     37 H8         -4.3888    2.1242   -3.8864 H         1 <0>         0.0990
     38 H9         -3.4890    0.7834   -4.6733 H         1 <0>         0.0690
     39 H10        -4.9033    3.2774   -7.2688 H         1 <0>         0.1332
     40 H11         0.6650    5.2976   -5.5227 H         1 <0>         0.0884
     41 H12         1.0297    3.7969   -4.6054 H         1 <0>         0.0650
     42 H13         0.1213    5.1320   -3.8187 H         1 <0>         0.0638
     43 H14         0.3743   -0.3826   -0.2638 H         1 <0>         0.0887
     44 H15         1.4897    1.0230   -0.1798 H         1 <0>         0.0864
     45 H16         0.3337    0.3801    2.0433 H         1 <0>         0.0773
     46 H17         0.1535    2.0946    1.5388 H         1 <0>         0.0706
     47 H18        -1.8893   -0.0922    0.8569 H         1 <0>         0.0703
     48 H19        -2.0170    0.9602    2.3070 H         1 <0>         0.0732
     49 H20        -2.1277    2.9660    0.9133 H         1 <0>         0.0811
     50 H21        -3.3390    1.7905    0.2989 H         1 <0>         0.0781
@<TRIPOS>BOND
     1    1    2 1
     2    1   30 1
     3    1   31 1
     4    1   32 1
     5    2    3 1
     6    2   33 1
     7    2   34 1
     8    3    4 1
     9    4    5 2
    10    4    6 1
    11    6   10 2
    12    6    7 1
    13    7   29 1
    14    7    8 2
    15    8    9 1
    16    8   26 1
    17    9   10 1
    18   10   11 1
    19   11   15 1
    20   11   12 1
    21   12   13 2
    22   12   25 1
    23   13   14 1
    24   13   35 1
    25   14   15 2
    26   14   17 1
    27   15   16 1
    28   16   36 1
    29   16   37 1
    30   16   38 1
    31   17   18 2
    32   17   39 1
    33   18   24 1
    34   18   19 1
    35   19   20 1
    36   19   21 2
    37   21   22 1
    38   22   23 2
    39   22   24 1
    40   25   40 1
    41   25   41 1
    42   25   42 1
    43   26   27 1
    44   26   43 1
    45   26   44 1
    46   27   28 1
    47   27   45 1
    48   27   46 1
    49   28   29 1
    50   28   47 1
    51   28   48 1
    52   29   49 1
    53   29   50 1
@<TRIPOS>MOLECULE
ZINC38753101
   55    58     0     0     0
SMALL
USER_CHARGES

@<TRIPOS>ATOM
      1 C1         -0.2186    1.4376    0.1663 C.3       1 <0>        -0.1168
      2 C2         -0.1723   -0.0684    0.1386 C.ar      1 <0>        -0.0510
      3 C3         -0.1555   -0.7373   -1.0710 C.ar      1 <0>        -0.1476
      4 C4         -0.1130   -2.1187   -1.0964 C.ar      1 <0>        -0.0196
      5 C5         -0.0868   -2.8313    0.0879 C.ar      1 <0>        -0.6231
      6 C6         -0.1027   -2.1624    1.2975 C.ar      1 <0>        -0.0196
      7 C7         -0.1409   -0.7808    1.3229 C.ar      1 <0>        -0.1473
      8 S1         -0.0338   -4.5922    0.0556 S.o2      1 <0>         2.6087
      9 O1         -0.5666   -5.0374    1.2954 O.2       1 <0>        -1.0236
     10 O2         -0.5777   -4.9920   -1.1949 O.2       1 <0>        -1.0241
     11 N1          1.5622   -5.0338    0.0403 N.2       1 <0>        -1.0771
     12 C8          1.9109   -6.3797    0.0142 C.ar      1 <0>         0.3170
     13 C9          0.9167   -7.3546   -0.0049 C.ar      1 <0>        -0.2657
     14 C10         1.2520   -8.6782   -0.0305 C.ar      1 <0>        -0.0162
     15 C11         2.5970   -9.0602   -0.0382 C.ar      1 <0>        -0.2486
     16 C12         3.5984   -8.0830   -0.0195 C.ar      1 <0>         0.0634
     17 C13         3.2525   -6.7488    0.0015 C.ar      1 <0>        -0.1823
     18 Cl1         5.2707   -8.5492   -0.0288 Cl        1 <0>        -0.0822
     19 C14         2.9593  -10.4892   -0.0654 C.2       1 <0>         0.5840
     20 O3          3.7080  -10.9428    0.7786 O.2       1 <0>        -0.5353
     21 N2          2.4606  -11.2926   -1.0258 N.am      1 <0>        -0.6134
     22 C15         1.6630  -10.7356   -2.1273 C.3       1 <0>         0.0908
     23 C16         2.3012  -11.1574   -3.4566 C.3       1 <0>         0.1062
     24 N3          2.5458  -12.6061   -3.4213 N.pl3     1 <0>        -0.6266
     25 C17         3.3435  -13.1631   -2.3198 C.3       1 <0>         0.1081
     26 C18         2.7100  -12.7406   -0.9936 C.3       1 <0>         0.0985
     27 C19         2.0291  -13.4387   -4.4166 C.ar      1 <0>         0.2248
     28 C20         1.3816  -12.8901   -5.5163 C.ar      1 <0>        -0.2015
     29 C21         0.8722  -13.7162   -6.4989 C.ar      1 <0>        -0.0704
     30 C22         1.0058  -15.0882   -6.3886 C.ar      1 <0>        -0.1869
     31 C23         1.6497  -15.6377   -5.2951 C.ar      1 <0>        -0.0718
     32 C24         2.1665  -14.8171   -4.3118 C.ar      1 <0>        -0.2037
     33 H1          0.7974    1.8325    0.1648 H         1 <0>         0.0736
     34 H2         -0.7509    1.8010   -0.7128 H         1 <0>         0.0674
     35 H3         -0.7358    1.7688    1.0668 H         1 <0>         0.0674
     36 H4         -0.1759   -0.1806   -1.9962 H         1 <0>         0.1260
     37 H5         -0.1005   -2.6413   -2.0414 H         1 <0>         0.1367
     38 H6         -0.0826   -2.7191    2.2228 H         1 <0>         0.1367
     39 H7         -0.1495   -0.2581    2.2679 H         1 <0>         0.1261
     40 H8         -0.1231   -7.0629    0.0010 H         1 <0>         0.1085
     41 H9          0.4774   -9.4307   -0.0446 H         1 <0>         0.1156
     42 H10         4.0218   -5.9910    0.0122 H         1 <0>         0.1305
     43 H11         0.6445  -11.1201   -2.0722 H         1 <0>         0.0697
     44 H12         1.6504   -9.6480   -2.0563 H         1 <0>         0.1090
     45 H13         1.6254  -10.9204   -4.2783 H         1 <0>         0.0943
     46 H14         3.2454  -10.6302   -3.5926 H         1 <0>         0.0699
     47 H15         3.3560  -14.2507   -2.3908 H         1 <0>         0.0918
     48 H16         4.3620  -12.7787   -2.3749 H         1 <0>         0.0675
     49 H17         3.3887  -12.9768   -0.1740 H         1 <0>         0.1014
     50 H18         1.7678  -13.2711   -0.8559 H         1 <0>         0.0664
     51 H19         1.2764  -11.8187   -5.6027 H         1 <0>         0.1232
     52 H20         0.3688  -13.2903   -7.3541 H         1 <0>         0.1184
     53 H21         0.6059  -15.7320   -7.1580 H         1 <0>         0.1143
     54 H22         1.7523  -16.7096   -5.2120 H         1 <0>         0.1173
     55 H23         2.6732  -15.2466   -3.4603 H         1 <0>         0.1212
@<TRIPOS>BOND
     1    1    2 1
     2    1   33 1
     3    1   34 1
     4    1   35 1
     5    2    7 ar
     6    2    3 ar
     7    3    4 ar
     8    3   36 1
     9    4    5 ar
    10    4   37 1
    11    5    6 ar
    12    5    8 1
    13    6    7 ar
    14    6   38 1
    15    7   39 1
    16    8    9 2
    17    8   10 2
    18    8   11 1
    19   11   12 1
    20   12   17 ar
    21   12   13 ar
    22   13   14 ar
    23   13   40 1
    24   14   15 ar
    25   14   41 1
    26   15   16 ar
    27   15   19 1
    28   16   17 ar
    29   16   18 1
    30   17   42 1
    31   19   20 2
    32   19   21 am
    33   21   26 1
    34   21   22 1
    35   22   23 1
    36   22   43 1
    37   22   44 1
    38   23   24 1
    39   23   45 1
    40   23   46 1
    41   24   25 1
    42   24   27 1
    43   25   26 1
    44   25   47 1
    45   25   48 1
    46   26   49 1
    47   26   50 1
    48   27   32 ar
    49   27   28 ar
    50   28   29 ar
    51   28   51 1
    52   29   30 ar
    53   29   52 1
    54   30   31 ar
    55   30   53 1
    56   31   32 ar
    57   31   54 1
    58   32   55 1
@<TRIPOS>MOLECULE
ZINC13139637
   58    62     0     0     0
SMALL
USER_CHARGES

@<TRIPOS>ATOM
      1 C1         -1.6776    1.2437    2.4935 C.3       1 <0>        -0.0837
      2 C2         -0.8321    0.9510    1.2809 C.2       1 <0>         0.1631
      3 C3         -1.1593    0.1150    0.2748 C.2       1 <0>        -0.2126
      4 C4         -0.1009    0.1215   -0.6634 C.2       1 <0>         0.5624
      5 O1         -0.0543   -0.5173   -1.6993 O.2       1 <0>        -0.5258
      6 N1          0.8470    0.9636   -0.2038 N.am      1 <0>        -0.3750
      7 N2          0.3931    1.4921    1.0120 N.pl3     1 <0>        -0.4082
      8 C5          1.1101    2.4553    1.8514 C.3       1 <0>         0.1116
      9 C6          2.0614    1.2604   -0.8305 C.ar      1 <0>         0.1738
     10 C7          3.2460    1.2220   -0.1064 C.ar      1 <0>        -0.1345
     11 C8          4.4436    1.5152   -0.7285 C.ar      1 <0>        -0.1050
     12 C9          4.4643    1.8467   -2.0709 C.ar      1 <0>        -0.1340
     13 C10         3.2866    1.8862   -2.7946 C.ar      1 <0>        -0.1017
     14 C11         2.0862    1.5885   -2.1799 C.ar      1 <0>        -0.1111
     15 C12        -2.4308   -0.6870    0.1688 C.3       1 <0>         0.1497
     16 H1         -3.2885   -0.0158    0.2119 H         1 <0>         0.0715
     17 C13        -2.4445   -1.4364   -1.1386 C.ar      1 <0>        -0.0194
     18 C14        -1.7296   -2.6134   -1.2666 C.ar      1 <0>        -0.0482
     19 C15        -1.7395   -3.3025   -2.4631 C.ar      1 <0>        -0.1030
     20 C16        -2.4694   -2.8122   -3.5394 C.ar      1 <0>        -0.0953
     21 C17        -3.1870   -1.6294   -3.4069 C.ar      1 <0>        -0.1369
     22 C18        -3.1766   -0.9485   -2.2057 C.ar      1 <0>        -0.1049
     23 S1         -2.4845   -3.6878   -5.0683 S.3       1 <0>        -0.1529
     24 C19        -3.5479   -2.6817   -6.1397 C.3       1 <0>        -0.1356
     25 C20        -2.5027   -1.6678    1.3108 C.2       1 <0>        -0.4790
     26 C21        -3.7527   -2.0444    1.8456 C.2       1 <0>         0.4201
     27 O2         -4.7952   -1.5911    1.4020 O.2       1 <0>        -0.5491
     28 C22        -3.7490   -3.0097    2.9637 C.ar      1 <0>        -0.2106
     29 C23        -4.9355   -3.4396    3.5545 C.ar      1 <0>        -0.0417
     30 C24        -4.8888   -4.3416    4.5953 C.ar      1 <0>        -0.1709
     31 C25        -3.6694   -4.8189    5.0529 C.ar      1 <0>        -0.0787
     32 C26        -2.4891   -4.4006    4.4761 C.ar      1 <0>        -0.1582
     33 C27        -2.5151   -3.4920    3.4253 C.ar      1 <0>         0.1625
     34 O3         -1.3718   -3.0699    2.8454 O.3       1 <0>        -0.2772
     35 C28        -1.3644   -2.1993    1.8282 C.2       1 <0>         0.4507
     36 O4         -0.1786   -1.8311    1.2990 O.3       1 <0>        -0.6094
     37 H2         -1.1608    1.9596    3.1326 H         1 <0>         0.0592
     38 H3         -2.6332    1.6624    2.1777 H         1 <0>         0.0840
     39 H4         -1.8506    0.3210    3.0473 H         1 <0>         0.0873
     40 H5          1.7948    1.9229    2.5116 H         1 <0>         0.0578
     41 H6          1.6745    3.1397    1.2181 H         1 <0>         0.0713
     42 H7          0.3944    3.0198    2.4490 H         1 <0>         0.0902
     43 H8          3.2305    0.9636    0.9421 H         1 <0>         0.1231
     44 H9          5.3650    1.4859   -0.1659 H         1 <0>         0.1245
     45 H10         5.4022    2.0755   -2.5550 H         1 <0>         0.1226
     46 H11         3.3061    2.1461   -3.8427 H         1 <0>         0.1266
     47 H12         1.1674    1.6149   -2.7468 H         1 <0>         0.1285
     48 H13        -1.1626   -2.9938   -0.4298 H         1 <0>         0.1269
     49 H14        -1.1804   -4.2211   -2.5626 H         1 <0>         0.1104
     50 H15        -3.7553   -1.2455   -4.2411 H         1 <0>         0.1079
     51 H16        -3.7373   -0.0314   -2.1007 H         1 <0>         0.1117
     52 H17        -3.6197   -3.1486   -7.1220 H         1 <0>         0.0999
     53 H18        -4.5420   -2.6079   -5.6989 H         1 <0>         0.0792
     54 H19        -3.1208   -1.6841   -6.2419 H         1 <0>         0.0789
     55 H20        -5.8853   -3.0681    3.1994 H         1 <0>         0.1310
     56 H21        -5.8054   -4.6781    5.0567 H         1 <0>         0.1213
     57 H22        -3.6444   -5.5250    5.8697 H         1 <0>         0.1253
     58 H23        -1.5454   -4.7786    4.8408 H         1 <0>         0.1297
@<TRIPOS>BOND
     1    1    2 1
     2    1   37 1
     3    1   38 1
     4    1   39 1
     5    2    7 1
     6    2    3 2
     7    3    4 1
     8    3   15 1
     9    4    5 2
    10    4    6 am
    11    6    7 1
    12    6    9 1
    13    7    8 1
    14    8   40 1
    15    8   41 1
    16    8   42 1
    17    9   14 ar
    18    9   10 ar
    19   10   11 ar
    20   10   43 1
    21   11   12 ar
    22   11   44 1
    23   12   13 ar
    24   12   45 1
    25   13   14 ar
    26   13   46 1
    27   14   47 1
    28   15   16 1
    29   15   17 1
    30   15   25 1
    31   17   22 ar
    32   17   18 ar
    33   18   19 ar
    34   18   48 1
    35   19   20 ar
    36   19   49 1
    37   20   21 ar
    38   20   23 1
    39   21   22 ar
    40   21   50 1
    41   22   51 1
    42   23   24 1
    43   24   52 1
    44   24   53 1
    45   24   54 1
    46   25   35 2
    47   25   26 1
    48   26   27 2
    49   26   28 1
    50   28   33 ar
    51   28   29 ar
    52   29   30 ar
    53   29   55 1
    54   30   31 ar
    55   30   56 1
    56   31   32 ar
    57   31   57 1
    58   32   33 ar
    59   32   58 1
    60   33   34 1
    61   34   35 1
    62   35   36 1
@<TRIPOS>MOLECULE
ZINC65116861
   49    52     0     0     0
SMALL
USER_CHARGES

@<TRIPOS>ATOM
      1 C1         -0.0184    1.5028    0.0103 C.3       1 <0>        -0.0807
      2 C2          0.0021   -0.0041    0.0020 C.ar      1 <0>        -0.1461
      3 C3          0.0057   -0.6887   -1.1977 C.ar      1 <0>        -0.0707
      4 C4          0.0244   -2.0709   -1.2068 C.ar      1 <0>        -0.2116
      5 C5          0.0395   -2.7737   -0.0143 C.ar      1 <0>         0.0242
      6 C6          0.0355   -2.0945    1.1892 C.ar      1 <0>        -0.2558
      7 C7          0.0230   -0.7055    1.2007 C.ar      1 <0>         0.2910
      8 N1          0.0256   -0.0156    2.4152 N.2       1 <0>        -1.0766
      9 S1          0.0505   -0.8535    3.8434 S.o2      1 <0>         2.6274
     10 O1         -1.1849   -1.5506    3.9269 O.2       1 <0>        -1.0131
     11 O2          1.3054   -1.5176    3.9028 O.2       1 <0>        -1.0163
     12 C8          0.0474    0.3345    5.1446 C.2       1 <0>        -0.7022
     13 C9         -1.0095    0.8839    5.7799 C.2       1 <0>         0.0127
     14 C10        -0.6893    1.8368    6.8133 C.2       1 <0>        -0.1038
     15 C11         0.6323    2.0863    7.0443 C.2       1 <0>        -0.2170
     16 S2          1.4372    1.1006    5.9508 S.3       1 <0>         0.3224
     17 C12        -1.7461    2.5142    7.5881 C.2       1 <0>         0.1403
     18 N2         -3.0582    2.3722    7.4825 N.2       1 <0>        -0.5258
     19 C13        -3.8807    3.0445    8.2442 C.2       1 <0>         0.1738
     20 C14        -3.3027    3.9102    9.1641 C.2       1 <0>        -0.3085
     21 S3         -1.5702    3.6457    8.8215 S.3       1 <0>         0.1615
     22 C15        -3.9378    4.7912   10.1457 C.2       1 <0>         0.6320
     23 O3         -5.1513    4.8303   10.2333 O.2       1 <0>        -0.5240
     24 N3         -3.1788    5.5591   10.9525 N.am      1 <0>        -0.6181
     25 C16        -1.7097    5.6147   10.9489 C.3       1 <0>         0.0879
     26 C17        -1.2860    6.6057   12.0535 C.3       1 <0>        -0.1277
     27 C18        -2.5192    6.6246   12.9950 C.3       1 <0>        -0.1342
     28 C19        -3.6846    6.4870   11.9804 C.3       1 <0>         0.1084
     29 C20        -5.3753    2.8892    8.1302 C.3       1 <0>        -0.0901
     30 Cl1         0.0630   -4.5094   -0.0306 Cl        1 <0>        -0.1069
     31 H1          1.0042    1.8801    0.0026 H         1 <0>         0.0501
     32 H2         -0.5455    1.8639   -0.8728 H         1 <0>         0.0403
     33 H3         -0.5286    1.8543    0.9071 H         1 <0>         0.0736
     34 H4         -0.0064   -0.1433   -2.1298 H         1 <0>         0.1153
     35 H5          0.0269   -2.6036   -2.1463 H         1 <0>         0.1134
     36 H6          0.0470   -2.6428    2.1196 H         1 <0>         0.1080
     37 H7         -2.0283    0.6266    5.5301 H         1 <0>         0.1624
     38 H8          1.0624    2.7612    7.7696 H         1 <0>         0.1944
     39 H9         -1.3008    4.6267   11.1605 H         1 <0>         0.0738
     40 H10        -1.3544    5.9655    9.9800 H         1 <0>         0.0744
     41 H11        -0.4040    6.2417   12.5805 H         1 <0>         0.0863
     42 H12        -1.1053    7.5957   11.6348 H         1 <0>         0.0805
     43 H13        -2.4964    5.7816   13.6856 H         1 <0>         0.0782
     44 H14        -2.5835    7.5689   13.5356 H         1 <0>         0.0875
     45 H15        -3.9197    7.4540   11.5358 H         1 <0>         0.0716
     46 H16        -4.5648    6.0690   12.4688 H         1 <0>         0.0823
     47 H17        -5.7101    2.0957    8.7982 H         1 <0>         0.0821
     48 H18        -5.8600    3.8255    8.4066 H         1 <0>         0.0945
     49 H19        -5.6368    2.6340    7.1032 H         1 <0>         0.0786
@<TRIPOS>BOND
     1    1    2 1
     2    1   31 1
     3    1   32 1
     4    1   33 1
     5    2    7 ar
     6    2    3 ar
     7    3    4 ar
     8    3   34 1
     9    4    5 ar
    10    4   35 1
    11    5    6 ar
    12    5   30 1
    13    6    7 ar
    14    6   36 1
    15    7    8 1
    16    8    9 1
    17    9   10 2
    18    9   11 2
    19    9   12 1
    20   12   16 1
    21   12   13 2
    22   13   14 1
    23   13   37 1
    24   14   15 2
    25   14   17 1
    26   15   16 1
    27   15   38 1
    28   17   21 1
    29   17   18 2
    30   18   19 1
    31   19   20 2
    32   19   29 1
    33   20   21 1
    34   20   22 1
    35   22   23 2
    36   22   24 am
    37   24   28 1
    38   24   25 1
    39   25   26 1
    40   25   39 1
    41   25   40 1
    42   26   27 1
    43   26   41 1
    44   26   42 1
    45   27   28 1
    46   27   43 1
    47   27   44 1
    48   28   45 1
    49   28   46 1
    50   29   47 1
    51   29   48 1
    52   29   49 1
@<TRIPOS>MOLECULE
ZINC13232134
   62    64     0     0     0
SMALL
USER_CHARGES
3-[3-(4-ethoxyphenyl)-5-[2-[methyl-(2-morpholino-2-oxo-ethyl)amino]-2-oxo-ethyl]sulfanyl-1,2,4-triazol-4-yl]propanoic acid
@<TRIPOS>ATOM
      1 C1          0.8513    7.7818    0.4792 C.3       1 <0>        -0.1525
      2 C2          1.0461    6.2675    0.5796 C.3       1 <0>         0.0525
      3 O1         -0.0646    5.6032   -0.0264 O.3       1 <0>        -0.3132
      4 C3         -0.0479    4.2446   -0.0222 C.ar      1 <0>         0.1422
      5 C4         -1.0968    3.5375   -0.5949 C.ar      1 <0>        -0.1428
      6 C5         -1.0839    2.1590   -0.5923 C.ar      1 <0>        -0.0697
      7 C6         -0.0143    1.4740   -0.0130 C.ar      1 <0>        -0.0547
      8 C7          1.0356    2.1886    0.5668 C.ar      1 <0>        -0.0351
      9 C8          1.0179    3.5670    0.5550 C.ar      1 <0>        -0.2114
     10 C9          0.0037   -0.0040   -0.0081 C.2       1 <0>         0.2308
     11 N1          1.0548   -0.7711    0.1657 N.2       1 <0>        -0.2793
     12 N2          0.7095   -2.0077    0.1114 N.2       1 <0>        -0.2984
     13 C10        -0.5835   -2.1064   -0.1005 C.2       1 <0>         0.1403
     14 N3         -1.0790   -0.8356   -0.1788 N.pl3     1 <0>        -0.4445
     15 C11        -2.4721   -0.4407   -0.4013 C.3       1 <0>         0.1083
     16 C12        -2.7610   -0.4142   -1.9035 C.3       1 <0>        -0.1792
     17 C13        -4.1940   -0.0080   -2.1324 C.2       1 <0>         0.4700
     18 O2         -4.9108    0.2353   -1.1906 O.co2     1 <0>        -0.6356
     19 S1         -1.5074   -3.5995   -0.2483 S.3       1 <0>         0.0911
     20 C14        -0.1819   -4.8123   -0.0286 C.3       1 <0>        -0.1479
     21 C15        -0.7540   -6.2036   -0.1191 C.2       1 <0>         0.5428
     22 O3         -1.9410   -6.3597   -0.3130 O.2       1 <0>        -0.5161
     23 N4          0.0534   -7.2743    0.0154 N.am      1 <0>        -0.5978
     24 C16         1.4872   -7.0857    0.2496 C.3       1 <0>         0.0773
     25 C17        -0.5027   -8.6268   -0.0725 C.3       1 <0>         0.1004
     26 C18        -0.4640   -9.0937   -1.5049 C.2       1 <0>         0.5003
     27 O4         -0.0159   -8.3681   -2.3673 O.2       1 <0>        -0.5207
     28 N5         -0.9272  -10.3175   -1.8275 N.am      1 <0>        -0.6194
     29 C19        -1.4698  -11.2178   -0.7976 C.3       1 <0>         0.0716
     30 C20        -2.8419  -11.7201   -1.2750 C.3       1 <0>         0.0447
     31 O5         -2.7099  -12.2664   -2.5895 O.3       1 <0>        -0.3790
     32 C21        -2.2947  -11.3202   -3.5775 C.3       1 <0>         0.0465
     33 C22        -0.8998  -10.7953   -3.2190 C.3       1 <0>         0.0778
     34 H1          0.7833    8.0706   -0.5696 H         1 <0>         0.0665
     35 H2         -0.0666    8.0650    0.9943 H         1 <0>         0.0665
     36 H3          1.6985    8.2885    0.9415 H         1 <0>         0.0770
     37 H4          1.1141    5.9787    1.6284 H         1 <0>         0.0626
     38 H5          1.9640    5.9844    0.0645 H         1 <0>         0.0628
     39 H6         -1.9238    4.0682   -1.0432 H         1 <0>         0.1402
     40 H7         -1.9003    1.6098   -1.0375 H         1 <0>         0.1475
     41 H8          1.8626    1.6623    1.0200 H         1 <0>         0.1373
     42 H9          1.8320    4.1206    0.9991 H         1 <0>         0.1330
     43 H10        -3.1348   -1.1576    0.0835 H         1 <0>         0.1043
     44 H11        -2.6402    0.5510    0.0186 H         1 <0>         0.1100
     45 H12        -2.0983    0.3027   -2.3883 H         1 <0>         0.0751
     46 H13        -2.5929   -1.4060   -2.3234 H         1 <0>         0.0807
     47 H14         0.5678   -4.6764   -0.8081 H         1 <0>         0.1280
     48 H15         0.2804   -4.6724    0.9485 H         1 <0>         0.1262
     49 H16         1.6769   -7.0366    1.3219 H         1 <0>         0.0649
     50 H17         2.0386   -7.9226   -0.1789 H         1 <0>         0.0736
     51 H18         1.8130   -6.1575   -0.2198 H         1 <0>         0.0812
     52 H19         0.0871   -9.3031    0.5462 H         1 <0>         0.1114
     53 H20        -1.5344   -8.6190    0.2793 H         1 <0>         0.1172
     54 H21        -0.7954  -12.0624   -0.6562 H         1 <0>         0.0817
     55 H22        -1.5823  -10.6759    0.1414 H         1 <0>         0.0948
     56 H23        -3.5493  -10.8911   -1.2946 H         1 <0>         0.0609
     57 H24        -3.2026  -12.4915   -0.5946 H         1 <0>         0.1084
     58 H25        -3.0001  -10.4898   -3.6055 H         1 <0>         0.0595
     59 H26        -2.2618  -11.8040   -4.5538 H         1 <0>         0.1082
     60 H27        -0.6346   -9.9735   -3.8841 H         1 <0>         0.1023
     61 H28        -0.1690  -11.5981   -3.3171 H         1 <0>         0.0760
     62 O6         -4.6742    0.0835   -3.3825 O.co2     1 <0>        -0.7574
@<TRIPOS>BOND
     1    1    2 1
     2    1   34 1
     3    1   35 1
     4    1   36 1
     5    2    3 1
     6    2   37 1
     7    2   38 1
     8    3    4 1
     9    4    9 ar
    10    4    5 ar
    11    5    6 ar
    12    5   39 1
    13    6    7 ar
    14    6   40 1
    15    7    8 ar
    16    7   10 1
    17    8    9 ar
    18    8   41 1
    19    9   42 1
    20   10   14 1
    21   10   11 2
    22   11   12 1
    23   12   13 2
    24   13   14 1
    25   13   19 1
    26   14   15 1
    27   15   16 1
    28   15   43 1
    29   15   44 1
    30   16   17 1
    31   16   45 1
    32   16   46 1
    33   17   18 2
    34   17   62 1
    35   19   20 1
    36   20   21 1
    37   20   47 1
    38   20   48 1
    39   21   22 2
    40   21   23 am
    41   23   24 1
    42   23   25 1
    43   24   49 1
    44   24   50 1
    45   24   51 1
    46   25   26 1
    47   25   52 1
    48   25   53 1
    49   26   27 2
    50   26   28 am
    51   28   33 1
    52   28   29 1
    53   29   30 1
    54   29   54 1
    55   29   55 1
    56   30   31 1
    57   30   56 1
    58   30   57 1
    59   31   32 1
    60   32   33 1
    61   32   58 1
    62   32   59 1
    63   33   60 1
    64   33   61 1
@<TRIPOS>MOLECULE
ZINC23410722
   50    51     0     0     0
SMALL
USER_CHARGES
2-[2-bromo-4-[(E)-[[3-cyano-4-(methoxymethyl)-6-methyl-2-pyridyl]hydrazono]methyl]-6-ethoxy-phenoxy]acetic acid
@<TRIPOS>ATOM
      1 C1          2.5091    5.1739    2.2485 C.3       1 <0>        -0.1555
      2 C2          2.1895    3.9242    3.0713 C.3       1 <0>         0.0496
      3 O1          1.2058    3.1436    2.3893 O.3       1 <0>        -0.2911
      4 C3          0.8073    1.9906    2.9903 C.ar      1 <0>         0.1121
      5 C4          1.3507    1.6217    4.2070 C.ar      1 <0>        -0.1592
      6 C5          0.9388    0.4368    4.8221 C.ar      1 <0>        -0.0316
      7 C6         -0.0204   -0.3700    4.2048 C.ar      1 <0>        -0.0721
      8 C7         -0.5624    0.0075    2.9933 C.ar      1 <0>        -0.0888
      9 C8         -0.1485    1.1819    2.3802 C.ar      1 <0>         0.1250
     10 O2         -0.6816    1.5467    1.1837 O.3       1 <0>        -0.2922
     11 C9         -0.0127    1.0858    0.0080 C.3       1 <0>         0.0311
     12 C10        -0.7416    1.5850   -1.2129 C.2       1 <0>         0.4735
     13 O3         -1.7322    2.2656   -1.0889 O.co2     1 <0>        -0.6121
     14 O4         -0.2903    1.2736   -2.4381 O.co2     1 <0>        -0.7601
     15 Br1        -1.8667   -1.0813    2.1630 Br        1 <0>        -0.0195
     16 C11         1.5154    0.0385    6.1192 C.2       1 <0>         0.1088
     17 N1          1.1316   -1.0628    6.6894 N.2       1 <0>        -0.2070
     18 N2          1.6794   -1.4413    7.9220 N.pl3     1 <0>        -0.5702
     19 C12         1.2704   -2.6150    8.5297 C.ar      1 <0>         0.4779
     20 C13         1.8228   -2.9916    9.7671 C.ar      1 <0>        -0.1593
     21 C14         1.3927   -4.1828   10.3620 C.ar      1 <0>         0.0448
     22 C15         0.4393   -4.9400    9.7035 C.ar      1 <0>        -0.2053
     23 C16        -0.0573   -4.5037    8.4884 C.ar      1 <0>         0.2121
     24 N3          0.3568   -3.3754    7.9459 N.ar      1 <0>        -0.5035
     25 C17        -1.0953   -5.3304    7.7740 C.3       1 <0>        -0.1165
     26 C18         1.9541   -4.6306   11.6870 C.3       1 <0>         0.0938
     27 O5          1.3500   -5.8688   12.0662 O.3       1 <0>        -0.3805
     28 C19         1.8152   -6.3839   13.3153 C.3       1 <0>         0.0276
     29 C20         2.8067   -2.1708   10.4064 C.1       1 <0>         0.2574
     30 N4          3.5873   -1.5197   10.9137 N.1       1 <0>        -0.4173
     31 H1          3.2663    5.7748    2.7735 H         1 <0>         0.0765
     32 H2          1.5942    5.7703    2.1172 H         1 <0>         0.0701
     33 H3          2.8966    4.8751    1.2633 H         1 <0>         0.0701
     34 H4          3.1044    3.3278    3.2026 H         1 <0>         0.0612
     35 H5          1.8021    4.2230    4.0565 H         1 <0>         0.0618
     36 H6          2.0922    2.2480    4.6806 H         1 <0>         0.1397
     37 H7         -0.3411   -1.2863    4.6780 H         1 <0>         0.1497
     38 H8          1.0193    1.4666    0.0002 H         1 <0>         0.0573
     39 H9          0.0023   -0.0141    0.0020 H         1 <0>         0.0592
     40 H10         2.2708    0.6745    6.6038 H         1 <0>         0.1234
     41 H11         2.4348   -0.8053    8.4067 H         1 <0>         0.4125
     42 H12         0.0855   -5.8645   10.1355 H         1 <0>         0.1537
     43 H13        -1.3729   -4.8358    6.8315 H         1 <0>         0.0863
     44 H14        -1.9861   -5.4312    8.4115 H         1 <0>         0.0868
     45 H15        -0.6845   -6.3276    7.5576 H         1 <0>         0.0869
     46 H16         3.0421   -4.7657   11.5974 H         1 <0>         0.0749
     47 H17         1.7409   -3.8692   12.4517 H         1 <0>         0.0748
     48 H18         1.3043   -7.3333   13.5335 H         1 <0>         0.0936
     49 H19         1.5991   -5.6592   14.1141 H         1 <0>         0.0449
     50 H20         2.9003   -6.5557   13.2598 H         1 <0>         0.0450
@<TRIPOS>BOND
     1    1    2 1
     2    1   31 1
     3    1   32 1
     4    1   33 1
     5    2    3 1
     6    2   34 1
     7    2   35 1
     8    3    4 1
     9    4    9 ar
    10    4    5 ar
    11    5    6 ar
    12    5   36 1
    13    6    7 ar
    14    6   16 1
    15    7    8 ar
    16    7   37 1
    17    8    9 ar
    18    8   15 1
    19    9   10 1
    20   10   11 1
    21   11   12 1
    22   11   38 1
    23   11   39 1
    24   12   13 2
    25   12   14 1
    26   16   17 2
    27   16   40 1
    28   17   18 1
    29   18   19 1
    30   18   41 1
    31   19   24 ar
    32   19   20 ar
    33   20   21 ar
    34   20   29 1
    35   21   22 ar
    36   21   26 1
    37   22   23 ar
    38   22   42 1
    39   23   24 ar
    40   23   25 1
    41   25   43 1
    42   25   44 1
    43   25   45 1
    44   26   27 1
    45   26   46 1
    46   26   47 1
    47   27   28 1
    48   28   48 1
    49   28   49 1
    50   28   50 1
    51   29   30 3
@<TRIPOS>MOLECULE
ZINC35566915
   63    65     0     0     0
SMALL
USER_CHARGES

@<TRIPOS>ATOM
      1 C1          6.7705   -6.3577    1.4417 C.3       1 <0>        -0.1466
      2 C2          5.3095   -5.9624    1.2178 C.3       1 <0>         0.0506
      3 O1          5.0524   -4.7089    1.8539 O.3       1 <0>        -0.3080
      4 C3          3.7869   -4.2190    1.7640 C.ar      1 <0>         0.0989
      5 C4          2.7982   -4.9604    1.1372 C.ar      1 <0>        -0.1324
      6 C5          1.5123   -4.4612    1.0471 C.ar      1 <0>        -0.0760
      7 C6          1.2094   -3.2224    1.5810 C.ar      1 <0>        -0.1008
      8 C7          2.1912   -2.4774    2.2072 C.ar      1 <0>        -0.1785
      9 C8          3.4807   -2.9746    2.3064 C.ar      1 <0>         0.0963
     10 O2          4.4463   -2.2457    2.9274 O.3       1 <0>        -0.3020
     11 C9          4.0598   -0.9774    3.4605 C.3       1 <0>         0.0860
     12 C10         5.2519   -0.3193    4.1060 C.2       1 <0>        -0.1503
     13 C11         5.5004    0.9477    3.8846 C.2       1 <0>        -0.1765
     14 C12         0.4383   -5.2689    0.3651 C.3       1 <0>         0.2517
     15 H1         -0.4594   -4.6643    0.2352 H         1 <0>         0.0718
     16 C13         0.9312   -5.7619   -0.9754 C.2       1 <0>        -0.4825
     17 C14         0.8988   -7.1132   -0.9303 C.2       1 <0>         0.2837
     18 C15         0.4019   -7.5436    0.3922 C.2       1 <0>         0.5094
     19 O3          0.2589   -8.6988    0.7411 O.2       1 <0>        -0.5284
     20 N1          0.1299   -6.4672    1.1544 N.am      1 <0>        -0.6048
     21 C16        -0.3812   -6.4876    2.5272 C.3       1 <0>         0.1403
     22 C17        -1.9110   -6.4783    2.5020 C.3       1 <0>        -0.1380
     23 C18        -2.4449   -6.4997    3.9357 C.3       1 <0>         0.0662
     24 O4         -3.8736   -6.4910    3.9121 O.3       1 <0>        -0.3910
     25 C19        -4.4764   -6.5096    5.2076 C.3       1 <0>         0.0321
     26 O5          1.2636   -7.9402   -1.9380 O.3       1 <0>        -0.6028
     27 C20         1.3617   -4.9338   -2.1083 C.2       1 <0>         0.5022
     28 O6          1.8858   -5.4530   -3.0778 O.2       1 <0>        -0.4738
     29 C21         1.1610   -3.4816   -2.0731 C.2       1 <0>        -0.2397
     30 C22         1.6232   -2.4989   -2.9410 C.2       1 <0>         0.1016
     31 N2          1.2812   -1.2676   -2.6559 N.2       1 <0>        -0.5216
     32 C23         0.5428   -0.9808   -1.6078 C.2       1 <0>         0.0088
     33 S1          0.2479   -2.4826   -0.9078 S.3       1 <0>         0.1620
     34 C24         0.0670    0.3723   -1.1454 C.3       1 <0>        -0.0594
     35 C25         2.4705   -2.8319   -4.1419 C.3       1 <0>        -0.0769
     36 H2          6.9823   -6.3758    2.5107 H         1 <0>         0.0633
     37 H3          6.9481   -7.3468    1.0193 H         1 <0>         0.0772
     38 H4          7.4219   -5.6323    0.9544 H         1 <0>         0.0634
     39 H5          5.1168   -5.8736    0.1486 H         1 <0>         0.0655
     40 H6          4.6574   -6.7257    1.6423 H         1 <0>         0.0608
     41 H7          3.0324   -5.9281    0.7187 H         1 <0>         0.1359
     42 H8          0.2036   -2.8356    1.5083 H         1 <0>         0.1270
     43 H9          1.9521   -1.5098    2.6231 H         1 <0>         0.1300
     44 H10         3.6863   -0.3438    2.6560 H         1 <0>         0.0644
     45 H11         3.2761   -1.1196    4.2046 H         1 <0>         0.0695
     46 H12         5.9015   -0.8923    4.7512 H         1 <0>         0.1186
     47 H13         6.3548    1.4193    4.3472 H         1 <0>         0.1059
     48 H14         4.8509    1.5206    3.2394 H         1 <0>         0.0988
     49 H15        -0.0317   -7.3884    3.0317 H         1 <0>         0.0797
     50 H16        -0.0213   -5.6087    3.0621 H         1 <0>         0.0787
     51 H17        -2.2606   -5.5776    1.9975 H         1 <0>         0.0750
     52 H18        -2.2709   -7.3573    1.9671 H         1 <0>         0.0766
     53 H19        -2.0953   -7.4004    4.4402 H         1 <0>         0.0503
     54 H20        -2.0849   -5.6208    4.4705 H         1 <0>         0.0501
     55 H21        -4.1587   -5.6309    5.7689 H         1 <0>         0.0396
     56 H22        -5.5614   -6.5015    5.1037 H         1 <0>         0.0838
     57 H23        -4.1690   -7.4106    5.7385 H         1 <0>         0.0399
     58 H24        -0.9352    0.5567   -1.5323 H         1 <0>         0.0831
     59 H25         0.0462    0.3973   -0.0559 H         1 <0>         0.0803
     60 H26         0.7458    1.1415   -1.5136 H         1 <0>         0.0847
     61 H27         1.8259   -3.0164   -5.0014 H         1 <0>         0.0732
     62 H28         3.1363   -1.9969   -4.3597 H         1 <0>         0.0645
     63 H29         3.0619   -3.7235   -3.9334 H         1 <0>         0.0889
@<TRIPOS>BOND
     1    1    2 1
     2    1   36 1
     3    1   37 1
     4    1   38 1
     5    2    3 1
     6    2   39 1
     7    2   40 1
     8    3    4 1
     9    4    9 ar
    10    4    5 ar
    11    5    6 ar
    12    5   41 1
    13    6    7 ar
    14    6   14 1
    15    7    8 ar
    16    7   42 1
    17    8    9 ar
    18    8   43 1
    19    9   10 1
    20   10   11 1
    21   11   12 1
    22   11   44 1
    23   11   45 1
    24   12   13 2
    25   12   46 1
    26   13   47 1
    27   13   48 1
    28   14   15 1
    29   14   20 1
    30   14   16 1
    31   16   17 2
    32   16   27 1
    33   17   18 1
    34   17   26 1
    35   18   19 2
    36   18   20 am
    37   20   21 1
    38   21   22 1
    39   21   49 1
    40   21   50 1
    41   22   23 1
    42   22   51 1
    43   22   52 1
    44   23   24 1
    45   23   53 1
    46   23   54 1
    47   24   25 1
    48   25   55 1
    49   25   56 1
    50   25   57 1
    51   27   28 2
    52   27   29 1
    53   29   33 1
    54   29   30 2
    55   30   31 1
    56   30   35 1
    57   31   32 2
    58   32   33 1
    59   32   34 1
    60   34   58 1
    61   34   59 1
    62   34   60 1
    63   35   61 1
    64   35   62 1
    65   35   63 1
@<TRIPOS>MOLECULE
ZINC40098928
   65    67     0     0     0
SMALL
USER_CHARGES

@<TRIPOS>ATOM
      1 C1          0.0387    1.6367    0.3069 C.3       1 <0>        -0.1461
      2 C2          0.0386    0.1099    0.2091 C.3       1 <0>         0.0509
      3 O1          0.5700   -0.2864   -1.0569 O.3       1 <0>        -0.3088
      4 C3          0.5626   -1.6164   -1.3406 C.ar      1 <0>         0.0979
      5 C4         -0.0357   -2.5096   -0.4663 C.ar      1 <0>        -0.1331
      6 C5         -0.0428   -3.8612   -0.7564 C.ar      1 <0>        -0.0706
      7 C6          0.5465   -4.3251   -1.9178 C.ar      1 <0>        -0.1091
      8 C7          1.1454   -3.4394   -2.7942 C.ar      1 <0>        -0.1791
      9 C8          1.1506   -2.0827   -2.5124 C.ar      1 <0>         0.0950
     10 O2          1.7342   -1.2095   -3.3763 O.3       1 <0>        -0.3067
     11 C9          2.3180   -1.7594   -4.5590 C.3       1 <0>         0.0591
     12 C10         2.9207   -0.6332   -5.4013 C.3       1 <0>        -0.1140
     13 C11         3.5457   -1.2220   -6.6676 C.3       1 <0>        -0.0930
     14 C12         2.4489   -1.8369   -7.5393 C.3       1 <0>        -0.1530
     15 C13         4.2564   -0.1144   -7.4480 C.3       1 <0>        -0.1466
     16 C14        -0.6939   -4.8311    0.1956 C.3       1 <0>         0.2509
     17 H1         -1.1306   -5.6627   -0.3574 H         1 <0>         0.0707
     18 C15        -1.7591   -4.1289    1.0050 C.2       1 <0>        -0.4895
     19 C16        -1.3931   -4.2300    2.3031 C.2       1 <0>         0.2870
     20 C17        -0.1209   -4.9747    2.3928 C.2       1 <0>         0.5144
     21 O3          0.4659   -5.2305    3.4256 O.2       1 <0>        -0.5170
     22 N1          0.2926   -5.3297    1.1612 N.am      1 <0>        -0.6038
     23 C18         1.5096   -6.0798    0.8414 C.3       1 <0>         0.1379
     24 C19         2.6668   -5.1038    0.6196 C.3       1 <0>         0.0543
     25 O4          2.9541   -4.4202    1.8411 O.3       1 <0>        -0.5533
     26 O5         -2.0834   -3.7277    3.3537 O.3       1 <0>        -0.6035
     27 C20        -2.9595   -3.4646    0.4831 C.2       1 <0>         0.5007
     28 O6         -3.6851   -2.8389    1.2354 O.2       1 <0>        -0.4764
     29 C21        -3.2852   -3.5543   -0.9439 C.2       1 <0>        -0.2387
     30 C22        -4.2726   -2.9018   -1.6731 C.2       1 <0>         0.1017
     31 N2         -4.3287   -3.1819   -2.9509 N.2       1 <0>        -0.5225
     32 C23        -3.4971   -4.0321   -3.5089 C.2       1 <0>         0.0112
     33 S1         -2.5191   -4.5262   -2.2316 S.3       1 <0>         0.1628
     34 C24        -3.4304   -4.4590   -4.9527 C.3       1 <0>        -0.0591
     35 C25        -5.2251   -1.9276   -1.0292 C.3       1 <0>        -0.0821
     36 H2          1.0659    2.0013    0.2979 H         1 <0>         0.0616
     37 H3         -0.5028    2.0552   -0.5416 H         1 <0>         0.0637
     38 H4         -0.4469    1.9415    1.2339 H         1 <0>         0.0775
     39 H5          0.6537   -0.3054    1.0074 H         1 <0>         0.0620
     40 H6         -0.9819   -0.2604    0.3067 H         1 <0>         0.0650
     41 H7         -0.4961   -2.1498    0.4420 H         1 <0>         0.1421
     42 H8          0.5392   -5.3818   -2.1408 H         1 <0>         0.1230
     43 H9          1.6054   -3.8045   -3.7006 H         1 <0>         0.1286
     44 H10         3.1009   -2.4657   -4.2831 H         1 <0>         0.0568
     45 H11         1.5509   -2.2748   -5.1370 H         1 <0>         0.0603
     46 H12         2.1377    0.0731   -5.6772 H         1 <0>         0.0732
     47 H13         3.6877   -0.1179   -4.8233 H         1 <0>         0.0726
     48 H14         4.2661   -1.9925   -6.3928 H         1 <0>         0.0717
     49 H15         1.7286   -1.0664   -7.8142 H         1 <0>         0.0568
     50 H16         2.8943   -2.2563   -8.4415 H         1 <0>         0.0553
     51 H17         1.9426   -2.6260   -6.9834 H         1 <0>         0.0567
     52 H18         5.0378    0.3237   -6.8270 H         1 <0>         0.0555
     53 H19         4.7018   -0.5338   -8.3501 H         1 <0>         0.0557
     54 H20         3.5361    0.6561   -7.7228 H         1 <0>         0.0559
     55 H21         1.7518   -6.7488    1.6672 H         1 <0>         0.0844
     56 H22         1.3486   -6.6644   -0.0645 H         1 <0>         0.0873
     57 H23         3.5496   -5.6546    0.2951 H         1 <0>         0.0451
     58 H24         2.3892   -4.3790   -0.1458 H         1 <0>         0.0532
     59 H25         3.6791   -3.7837    1.7745 H         1 <0>         0.3690
     60 H26        -2.6941   -3.8506   -5.4779 H         1 <0>         0.0819
     61 H27        -3.1408   -5.5084   -5.0082 H         1 <0>         0.0807
     62 H28        -4.4081   -4.3269   -5.4161 H         1 <0>         0.0851
     63 H29        -4.8016   -0.9241   -1.0707 H         1 <0>         0.0700
     64 H30        -6.1759   -1.9430   -1.5619 H         1 <0>         0.0652
     65 H31        -5.3867   -2.2110    0.0108 H         1 <0>         0.0955
@<TRIPOS>BOND
     1    1    2 1
     2    1   36 1
     3    1   37 1
     4    1   38 1
     5    2    3 1
     6    2   39 1
     7    2   40 1
     8    3    4 1
     9    4    9 ar
    10    4    5 ar
    11    5    6 ar
    12    5   41 1
    13    6    7 ar
    14    6   16 1
    15    7    8 ar
    16    7   42 1
    17    8    9 ar
    18    8   43 1
    19    9   10 1
    20   10   11 1
    21   11   12 1
    22   11   44 1
    23   11   45 1
    24   12   13 1
    25   12   46 1
    26   12   47 1
    27   13   14 1
    28   13   15 1
    29   13   48 1
    30   14   49 1
    31   14   50 1
    32   14   51 1
    33   15   52 1
    34   15   53 1
    35   15   54 1
    36   16   17 1
    37   16   22 1
    38   16   18 1
    39   18   19 2
    40   18   27 1
    41   19   20 1
    42   19   26 1
    43   20   21 2
    44   20   22 am
    45   22   23 1
    46   23   24 1
    47   23   55 1
    48   23   56 1
    49   24   25 1
    50   24   57 1
    51   24   58 1
    52   25   59 1
    53   27   28 2
    54   27   29 1
    55   29   33 1
    56   29   30 2
    57   30   31 1
    58   30   35 1
    59   31   32 2
    60   32   33 1
    61   32   34 1
    62   34   60 1
    63   34   61 1
    64   34   62 1
    65   35   63 1
    66   35   64 1
    67   35   65 1
@<TRIPOS>MOLECULE
ZINC39975258
   59    61     0     0     0
SMALL
USER_CHARGES

@<TRIPOS>ATOM
      1 C1          1.5194   -1.4194   -2.2932 C.3       1 <0>        -0.1524
      2 C2          0.6908   -1.2893   -1.0136 C.3       1 <0>         0.0574
      3 O1          1.4161   -1.8497    0.0827 O.3       1 <0>        -0.3416
      4 C3          0.8212   -1.8149    1.2918 C.2       1 <0>         0.5243
      5 O2         -0.2832   -1.3221    1.4117 O.2       1 <0>        -0.4817
      6 C4          1.5082   -2.3727    2.4650 C.2       1 <0>        -0.1567
      7 C5          1.5340   -3.6649    2.6760 C.2       1 <0>        -0.0453
      8 C6          2.2600   -4.1803    3.9062 C.3       1 <0>        -0.0727
      9 H1          1.5554   -4.4645    4.6877 H         1 <0>         0.1497
     10 S1          3.2276   -2.6869    4.3942 S.3       1 <0>        -0.2217
     11 C7          2.2111   -1.4655    3.4595 C.3       1 <0>         0.2465
     12 H2          1.4941   -0.9710    4.1149 H         1 <0>         0.1542
     13 N1          3.0582   -0.4866    2.7738 N.am      1 <0>        -0.7054
     14 C8          3.0385    0.8060    3.1550 C.2       1 <0>         0.5430
     15 O3          2.3194    1.1587    4.0658 O.2       1 <0>        -0.5058
     16 C9          3.9099    1.8130    2.4497 C.3       1 <0>        -0.1399
     17 S2          3.6597    3.4512    3.1875 S.3       1 <0>         0.0292
     18 C10         4.7329    4.5021    2.2662 C.2       1 <0>         0.0596
     19 N2          4.9030    5.8449    2.4469 N.2       1 <0>        -0.5366
     20 C11         5.8305    6.2314    1.5071 C.2       1 <0>         0.0949
     21 N3          6.1651    5.1570    0.8313 N.2       1 <0>        -0.3312
     22 N4          5.5232    4.1385    1.2808 N.2       1 <0>        -0.3628
     23 C12         6.3518    7.5990    1.2975 C.ar      1 <0>         0.1294
     24 C13         5.9053    8.6486    2.1010 C.ar      1 <0>        -0.1692
     25 C14         6.3961    9.9283    1.9013 C.ar      1 <0>         0.1561
     26 C15         7.3302   10.1672    0.9037 C.ar      1 <0>        -0.3125
     27 C16         7.7769    9.1263    0.1024 C.ar      1 <0>         0.1564
     28 C17         7.2959    7.8425    0.2995 C.ar      1 <0>        -0.1714
     29 O4          8.6920    9.3657   -0.8734 O.3       1 <0>        -0.3156
     30 C18         9.1498   10.7117   -1.0174 C.3       1 <0>         0.0301
     31 O5          5.9617   10.9513    2.6834 O.3       1 <0>        -0.3154
     32 C19         6.5097   12.2451    2.4226 C.3       1 <0>         0.0301
     33 C20         3.1713   -5.3288    3.5575 C.2       1 <0>         0.3697
     34 O6          4.3391   -5.1247    3.3274 O.2       1 <0>        -0.4138
     35 C21         2.6253   -6.7321    3.4960 C.3       1 <0>        -0.1952
     36 C22         0.8597   -4.6168    1.7219 C.3       1 <0>        -0.1233
     37 H3          1.7201   -2.4724   -2.4906 H         1 <0>         0.0659
     38 H4          0.9661   -0.9920   -3.1294 H         1 <0>         0.0818
     39 H5          2.4624   -0.8865   -2.1711 H         1 <0>         0.0716
     40 H6          0.4900   -0.2363   -0.8162 H         1 <0>         0.0732
     41 H7         -0.2522   -1.8223   -1.1357 H         1 <0>         0.0686
     42 H8          3.6333   -0.7687    2.0454 H         1 <0>         0.4146
     43 H9          4.9558    1.5240    2.5529 H         1 <0>         0.1183
     44 H10         3.6447    1.8461    1.3930 H         1 <0>         0.1156
     45 H11         5.1776    8.4635    2.8773 H         1 <0>         0.1373
     46 H12         7.7104   11.1664    0.7501 H         1 <0>         0.1262
     47 H13         7.6474    7.0320   -0.3216 H         1 <0>         0.1373
     48 H14         8.3039   11.3609   -1.2435 H         1 <0>         0.0506
     49 H15         9.6195   11.0371   -0.0892 H         1 <0>         0.0507
     50 H16         9.8751   10.7639   -1.8294 H         1 <0>         0.0953
     51 H17         7.5913   12.2148    2.5540 H         1 <0>         0.0507
     52 H18         6.2760   12.5391    1.3994 H         1 <0>         0.0506
     53 H19         6.0796   12.9682    3.1156 H         1 <0>         0.0953
     54 H20         1.5611   -6.7185    3.7315 H         1 <0>         0.0855
     55 H21         2.7705   -7.1348    2.4936 H         1 <0>         0.0990
     56 H22         3.1493   -7.3578    4.2184 H         1 <0>         0.0998
     57 H23         0.4676   -4.0607    0.8703 H         1 <0>         0.0722
     58 H24         1.5826   -5.3541    1.3726 H         1 <0>         0.0877
     59 H25         0.0412   -5.1241    2.2326 H         1 <0>         0.0918
@<TRIPOS>BOND
     1    1    2 1
     2    1   37 1
     3    1   38 1
     4    1   39 1
     5    2    3 1
     6    2   40 1
     7    2   41 1
     8    3    4 1
     9    4    5 2
    10    4    6 1
    11    6   11 1
    12    6    7 2
    13    7    8 1
    14    7   36 1
    15    8    9 1
    16    8   10 1
    17    8   33 1
    18   10   11 1
    19   11   12 1
    20   11   13 1
    21   13   14 am
    22   13   42 1
    23   14   15 2
    24   14   16 1
    25   16   17 1
    26   16   43 1
    27   16   44 1
    28   17   18 1
    29   18   19 1
    30   18   22 2
    31   19   20 1
    32   20   23 1
    33   20   21 2
    34   21   22 1
    35   23   28 ar
    36   23   24 ar
    37   24   25 ar
    38   24   45 1
    39   25   26 ar
    40   25   31 1
    41   26   27 ar
    42   26   46 1
    43   27   28 ar
    44   27   29 1
    45   28   47 1
    46   29   30 1
    47   30   48 1
    48   30   49 1
    49   30   50 1
    50   31   32 1
    51   32   51 1
    52   32   52 1
    53   32   53 1
    54   33   34 2
    55   33   35 1
    56   35   54 1
    57   35   55 1
    58   35   56 1
    59   36   57 1
    60   36   58 1
    61   36   59 1
@<TRIPOS>MOLECULE
ZINC08175216
   44    46     0     0     0
SMALL
USER_CHARGES
3,3-dimethyl-4-[2-[(5-methylamino-1,3,4-thiadiazol-2-yl)sulfanyl]propanoyl]-1H-quinoxalin-2-one
@<TRIPOS>ATOM
      1 C1         -0.9726    7.2869    1.8535 C.3       1 <0>        -0.1553
      2 C2         -2.3487    7.9385    1.7034 C.3       1 <0>        -0.1398
      3 H1         -2.6715    7.8706    0.6644 H         1 <0>         0.1440
      4 C3         -2.2656    9.3872    2.1099 C.2       1 <0>         0.5479
      5 O1         -2.2911    9.6900    3.2841 O.2       1 <0>        -0.4861
      6 N1         -2.1630   10.3464    1.1687 N.am      1 <0>        -0.5431
      7 C4         -2.1318   10.0213   -0.1965 C.ar      1 <0>         0.1061
      8 C5         -1.6258    8.8135   -0.6342 C.ar      1 <0>        -0.1473
      9 C6         -1.6108    8.5242   -1.9871 C.ar      1 <0>        -0.1057
     10 C7         -2.1049    9.4388   -2.8992 C.ar      1 <0>        -0.0974
     11 C8         -2.6200   10.6473   -2.4681 C.ar      1 <0>        -0.1256
     12 C9         -2.6413   10.9447   -1.1148 C.ar      1 <0>         0.1351
     13 N2         -3.1624   12.1598   -0.6572 N.am      1 <0>        -0.6574
     14 C10        -2.9379   12.5737    0.6042 C.2       1 <0>         0.5193
     15 O2         -3.4367   13.6089    0.9927 O.2       1 <0>        -0.5004
     16 C11        -2.0740   11.7668    1.5392 C.3       1 <0>         0.1581
     17 C12        -2.5637   11.9523    2.9768 C.3       1 <0>        -0.1355
     18 C13        -0.6218   12.2351    1.4268 C.3       1 <0>        -0.1555
     19 S1         -3.5432    7.0801    2.7649 S.3       1 <0>         0.1072
     20 C14        -3.6361    5.4599    2.0788 C.2       1 <0>         0.0309
     21 N3         -3.0014    4.9550    1.0384 N.2       1 <0>        -0.2719
     22 N4         -3.2239    3.6486    0.6690 N.2       1 <0>        -0.3705
     23 C15        -4.0704    2.9072    1.3563 C.2       1 <0>         0.3506
     24 S2         -4.6209    4.0641    2.6011 S.3       1 <0>         0.0005
     25 N5         -4.4402    1.5817    1.1608 N.pl3     1 <0>        -0.6732
     26 C16        -3.8582    0.8140    0.0570 C.3       1 <0>         0.0977
     27 H2         -0.6731    7.3078    2.9014 H         1 <0>         0.0863
     28 H3         -1.0204    6.2536    1.5098 H         1 <0>         0.0928
     29 H4         -0.2439    7.8351    1.2564 H         1 <0>         0.0819
     30 H5         -1.2393    8.0989    0.0773 H         1 <0>         0.1609
     31 H6         -1.2120    7.5816   -2.3318 H         1 <0>         0.1372
     32 H7         -2.0885    9.2077   -3.9541 H         1 <0>         0.1354
     33 H8         -3.0053   11.3578   -3.1845 H         1 <0>         0.1372
     34 H9         -3.6917   12.7102   -1.2554 H         1 <0>         0.4165
     35 H10        -1.8318   11.5326    3.6670 H         1 <0>         0.0981
     36 H11        -2.6901   13.0151    3.1833 H         1 <0>         0.0754
     37 H12        -3.5181   11.4414    3.1044 H         1 <0>         0.0678
     38 H13        -0.2767   12.1056    0.4010 H         1 <0>         0.0662
     39 H14        -0.5572   13.2879    1.7017 H         1 <0>         0.0856
     40 H15         0.0031   11.6454    2.0975 H         1 <0>         0.0820
     41 H16        -5.0836    1.1649    1.7552 H         1 <0>         0.4236
     42 H17        -4.2653   -0.1971    0.0634 H         1 <0>         0.0882
     43 H18        -2.7756    0.7706    0.1758 H         1 <0>         0.0662
     44 H19        -4.1008    1.2974   -0.8893 H         1 <0>         0.0660
@<TRIPOS>BOND
     1    1    2 1
     2    1   27 1
     3    1   28 1
     4    1   29 1
     5    2    3 1
     6    2    4 1
     7    2   19 1
     8    4    5 2
     9    4    6 am
    10    6   16 1
    11    6    7 1
    12    7   12 ar
    13    7    8 ar
    14    8    9 ar
    15    8   30 1
    16    9   10 ar
    17    9   31 1
    18   10   11 ar
    19   10   32 1
    20   11   12 ar
    21   11   33 1
    22   12   13 1
    23   13   14 am
    24   13   34 1
    25   14   15 2
    26   14   16 1
    27   16   17 1
    28   16   18 1
    29   17   35 1
    30   17   36 1
    31   17   37 1
    32   18   38 1
    33   18   39 1
    34   18   40 1
    35   19   20 1
    36   20   24 1
    37   20   21 2
    38   21   22 1
    39   22   23 2
    40   23   24 1
    41   23   25 1
    42   25   26 1
    43   25   41 1
    44   26   42 1
    45   26   43 1
    46   26   44 1
@<TRIPOS>MOLECULE
ZINC23616278
   45    48     0     0     0
SMALL
USER_CHARGES
(2S)-2-[[4-amino-5-(2-methyl-3-furyl)-1,2,4-triazol-3-yl]sulfanyl]-1-(6,7-dihydro-4H-thieno[3,2-c]pyridin-5-yl)propan-1-one
@<TRIPOS>ATOM
      1 C1          1.7843    3.2730    0.0018 C.3       1 <0>        -0.0962
      2 C2          1.2864    1.8506   -0.0003 C.2       1 <0>         0.0655
      3 C3         -0.0178    1.4642    0.0101 C.2       1 <0>        -0.1311
      4 C4          0.0021   -0.0041    0.0020 C.2       1 <0>        -0.2088
      5 C5          1.2979   -0.3572   -0.0123 C.2       1 <0>        -0.0152
      6 O1          2.0539    0.7511   -0.0135 O.3       1 <0>        -0.1719
      7 C6         -1.2089    2.3410    0.0208 C.2       1 <0>         0.2438
      8 N1         -1.2114    3.6535    0.0332 N.2       1 <0>        -0.2671
      9 N2         -2.4199    4.0904    0.0360 N.2       1 <0>        -0.2756
     10 C7         -3.2635    3.0843    0.0353 C.2       1 <0>         0.1187
     11 N3         -2.5229    1.9351    0.0256 N.pl3     1 <0>        -0.2075
     12 N4         -2.9905    0.6516    0.0208 N.3       1 <0>        -0.7636
     13 S1         -5.0220    3.1946    0.0459 S.3       1 <0>         0.0902
     14 C8         -5.2240    4.9933    0.0556 C.3       1 <0>        -0.1166
     15 H1         -4.7417    5.5819    0.8499 H         1 <0>         0.1298
     16 C9         -4.6827    5.5744   -1.2521 C.3       1 <0>        -0.1518
     17 C10        -6.6859    5.3339    0.1894 C.2       1 <0>         0.5380
     18 O2         -7.5290    4.5077   -0.0890 O.2       1 <0>        -0.5219
     19 N5         -7.0565    6.5566    0.6186 N.am      1 <0>        -0.6057
     20 C11        -8.4801    6.9020    0.7472 C.3       1 <0>         0.1163
     21 C12        -8.7787    7.1473    2.2394 C.3       1 <0>        -0.0592
     22 C13        -7.6696    7.9619    2.8215 C.2       1 <0>        -0.1382
     23 C14        -6.4315    8.1816    2.3016 C.2       1 <0>        -0.1448
     24 C15        -5.5707    8.9814    3.0517 C.2       1 <0>        -0.1461
     25 C16        -5.9835    9.4980    4.2318 C.2       1 <0>        -0.1709
     26 S2         -7.6497    8.8643    4.3481 S.3       1 <0>         0.0492
     27 C17        -6.0439    7.5653    0.9587 C.3       1 <0>         0.1624
     28 H2          0.9266    3.9617    0.0139 H         1 <0>         0.1198
     29 H3          2.3858    3.4522   -0.9016 H         1 <0>         0.0853
     30 H4          2.4039    3.4433    0.8946 H         1 <0>         0.0851
     31 H5         -0.8517   -0.6655    0.0061 H         1 <0>         0.1492
     32 H6          1.6713   -1.3706   -0.0218 H         1 <0>         0.2118
     33 H7         -4.0738    0.4609    0.0256 H         1 <0>         0.4468
     34 H8         -2.2837   -0.1912    0.0122 H         1 <0>         0.4427
     35 H9         -4.8055    6.6675   -1.2461 H         1 <0>         0.0723
     36 H10        -5.2378    5.1477   -2.1005 H         1 <0>         0.0711
     37 H11        -3.6156    5.3258   -1.3498 H         1 <0>         0.0947
     38 H12        -8.6912    7.8102    0.1636 H         1 <0>         0.0828
     39 H13        -9.0945    6.0718    0.3686 H         1 <0>         0.1092
     40 H14        -9.7315    7.6879    2.3386 H         1 <0>         0.0974
     41 H15        -8.8484    6.1823    2.7629 H         1 <0>         0.0914
     42 H16        -4.5743    9.1889    2.6905 H         1 <0>         0.1357
     43 H17        -5.4455   10.1289    4.9238 H         1 <0>         0.1887
     44 H18        -5.0570    7.0846    1.0300 H         1 <0>         0.1029
     45 H19        -6.0195    8.3385    0.1767 H         1 <0>         0.0913
@<TRIPOS>BOND
     1    1    2 1
     2    1   28 1
     3    1   29 1
     4    1   30 1
     5    2    6 1
     6    2    3 2
     7    3    4 1
     8    3    7 1
     9    4    5 2
    10    4   31 1
    11    5    6 1
    12    5   32 1
    13    7   11 1
    14    7    8 2
    15    8    9 1
    16    9   10 2
    17   10   11 1
    18   10   13 1
    19   11   12 1
    20   12   33 1
    21   12   34 1
    22   13   14 1
    23   14   15 1
    24   14   16 1
    25   14   17 1
    26   16   35 1
    27   16   36 1
    28   16   37 1
    29   17   18 2
    30   17   19 am
    31   19   27 1
    32   19   20 1
    33   20   21 1
    34   20   38 1
    35   20   39 1
    36   21   22 1
    37   21   40 1
    38   21   41 1
    39   22   26 1
    40   22   23 2
    41   23   24 1
    42   23   27 1
    43   24   25 2
    44   24   42 1
    45   25   26 1
    46   25   43 1
    47   27   44 1
    48   27   45 1
@<TRIPOS>MOLECULE
ZINC42653718
   50    52     0     0     0
SMALL
USER_CHARGES

@<TRIPOS>ATOM
      1 C1         -0.0184    1.5028    0.0103 C.3       1 <0>        -0.0761
      2 C2          0.0021   -0.0041    0.0020 C.2       1 <0>         0.0902
      3 C3          0.0080   -0.8147   -1.1361 C.2       1 <0>        -0.2689
      4 C4          0.0279   -2.1123   -0.7243 C.2       1 <0>         0.3040
      5 N1          0.0343   -2.1091    0.6337 N.pl3     1 <0>        -0.4931
      6 H1          0.0484   -2.8915    1.2069 H         1 <0>         0.4363
      7 N2          0.0230   -0.7746    1.0592 N.2       1 <0>        -0.2819
      8 N3          0.0397   -3.2379   -1.5462 N.am      1 <0>        -0.6467
      9 C5          0.0313   -3.0940   -2.8862 C.2       1 <0>         0.5693
     10 O1          0.0136   -1.9824   -3.3781 O.2       1 <0>        -0.4895
     11 C6          0.0438   -4.2877   -3.7578 C.ar      1 <0>        -0.1527
     12 C7          0.0585   -5.5658   -3.1961 C.ar      1 <0>        -0.0329
     13 C8          0.0701   -6.6756   -4.0152 C.ar      1 <0>        -0.1400
     14 C9          0.0677   -6.5242   -5.3907 C.ar      1 <0>         0.0109
     15 C10         0.0537   -5.2606   -5.9538 C.ar      1 <0>        -0.6837
     16 C11         0.0352   -4.1422   -5.1459 C.ar      1 <0>         0.0473
     17 S1          0.0514   -5.0792   -7.7064 S.o2      1 <0>         2.6875
     18 O2          0.5880   -3.7926   -7.9822 O.2       1 <0>        -0.9454
     19 O3          0.6153   -6.2699   -8.2387 O.2       1 <0>        -0.9489
     20 N4         -1.5311   -5.0462   -8.1931 N.pl3     1 <0>        -0.9915
     21 C12        -2.2345   -6.2894   -8.5375 C.3       1 <0>         0.1230
     22 C13        -3.5261   -6.3685   -7.7176 C.3       1 <0>        -0.1102
     23 H2         -3.2803   -6.4590   -6.6595 H         1 <0>         0.0778
     24 C14        -4.3482   -5.0978   -7.9443 C.3       1 <0>        -0.1074
     25 C15        -3.5499   -3.8806   -7.4717 C.3       1 <0>        -0.1075
     26 H3         -4.1452   -2.9783   -7.6118 H         1 <0>         0.0865
     27 C16        -2.2604   -3.7738   -8.2830 C.3       1 <0>         0.1218
     28 C17        -3.2053   -4.0400   -5.9895 C.3       1 <0>        -0.1561
     29 C18        -4.3375   -7.5881   -8.1595 C.3       1 <0>        -0.1484
     30 H4          1.0042    1.8801    0.0026 H         1 <0>         0.0801
     31 H5         -0.5455    1.8639   -0.8728 H         1 <0>         0.0811
     32 H6         -0.5286    1.8543    0.9071 H         1 <0>         0.0746
     33 H7         -0.0017   -0.4727   -2.1604 H         1 <0>         0.1749
     34 H8          0.0539   -4.1249   -1.1537 H         1 <0>         0.4109
     35 H9          0.0610   -5.6853   -2.1228 H         1 <0>         0.1335
     36 H10         0.0814   -7.6648   -3.5820 H         1 <0>         0.1444
     37 H11         0.0772   -7.3964   -6.0276 H         1 <0>         0.1478
     38 H12         0.0190   -3.1564   -5.5867 H         1 <0>         0.1557
     39 H13        -2.4758   -6.2902   -9.6005 H         1 <0>         0.0797
     40 H14        -1.6004   -7.1446   -8.3040 H         1 <0>         0.0901
     41 H15        -4.5725   -4.9949   -9.0060 H         1 <0>         0.0672
     42 H16        -5.2792   -5.1623   -7.3812 H         1 <0>         0.0664
     43 H17        -1.6434   -2.9699   -7.8815 H         1 <0>         0.0927
     44 H18        -2.5038   -3.5650   -9.3247 H         1 <0>         0.0800
     45 H19        -2.6091   -4.9418   -5.8501 H         1 <0>         0.0576
     46 H20        -2.6368   -3.1729   -5.6534 H         1 <0>         0.0559
     47 H21        -4.1247   -4.1189   -5.4092 H         1 <0>         0.0577
     48 H22        -3.7502   -8.4924   -8.0001 H         1 <0>         0.0580
     49 H23        -5.2563   -7.6440   -7.5758 H         1 <0>         0.0592
     50 H24        -4.5839   -7.4967   -9.2173 H         1 <0>         0.0589
@<TRIPOS>BOND
     1    1    2 1
     2    1   30 1
     3    1   31 1
     4    1   32 1
     5    2    7 2
     6    2    3 1
     7    3    4 2
     8    3   33 1
     9    4    5 1
    10    4    8 1
    11    5    6 1
    12    5    7 1
    13    8    9 am
    14    8   34 1
    15    9   10 2
    16    9   11 1
    17   11   16 ar
    18   11   12 ar
    19   12   13 ar
    20   12   35 1
    21   13   14 ar
    22   13   36 1
    23   14   15 ar
    24   14   37 1
    25   15   16 ar
    26   15   17 1
    27   16   38 1
    28   17   18 2
    29   17   19 2
    30   17   20 1
    31   20   27 1
    32   20   21 1
    33   21   22 1
    34   21   39 1
    35   21   40 1
    36   22   23 1
    37   22   24 1
    38   22   29 1
    39   24   25 1
    40   24   41 1
    41   24   42 1
    42   25   26 1
    43   25   27 1
    44   25   28 1
    45   27   43 1
    46   27   44 1
    47   28   45 1
    48   28   46 1
    49   28   47 1
    50   29   48 1
    51   29   49 1
    52   29   50 1
@<TRIPOS>MOLECULE
ZINC64369751
   48    51     0     0     0
SMALL
USER_CHARGES

@<TRIPOS>ATOM
      1 C1          0.2102    1.3940    0.0425 C.3       1 <0>         0.0262
      2 O1          0.1259   -0.0325    0.0353 O.3       1 <0>        -0.3171
      3 C2          0.7837   -0.6845   -0.9593 C.ar      1 <0>         0.1330
      4 C3          1.5003    0.0337   -1.9055 C.ar      1 <0>        -0.2077
      5 C4          2.1685   -0.6313   -2.9153 C.ar      1 <0>        -0.0644
      6 C5          2.1231   -2.0115   -2.9836 C.ar      1 <0>        -0.1156
      7 C6          1.4093   -2.7296   -2.0420 C.ar      1 <0>        -0.0739
      8 C7          0.7445   -2.0696   -1.0267 C.ar      1 <0>        -0.1510
      9 C8          2.8525   -2.7344   -4.0865 C.3       1 <0>         0.1420
     10 H1          3.0467   -2.0424   -4.9059 H         1 <0>         0.1274
     11 C9          4.1618   -3.2636   -3.5575 C.2       1 <0>        -0.1223
     12 C10         4.1748   -4.4554   -2.9536 C.2       1 <0>        -0.1830
     13 C11         2.8961   -5.1847   -2.8444 C.2       1 <0>         0.5326
     14 O2          2.7675   -6.0917   -2.0446 O.2       1 <0>        -0.5160
     15 N1          1.8729   -4.8273   -3.6467 N.am      1 <0>        -0.4401
     16 N2          2.0255   -3.8426   -4.5716 N.3       1 <0>        -0.4363
     17 C12         0.5822   -5.5085   -3.5198 C.3       1 <0>         0.1154
     18 C13         0.5986   -6.7727   -4.3398 C.2       1 <0>         0.5022
     19 O3          1.5909   -7.0749   -4.9684 O.2       1 <0>        -0.5097
     20 N3         -0.4893   -7.5675   -4.3747 N.am      1 <0>        -0.6835
     21 C14        -0.5131   -8.6850   -5.2180 C.2       1 <0>         0.1328
     22 C15        -0.7357   -9.8946   -4.6760 C.2       1 <0>        -0.1218
     23 C16        -0.8181  -11.0913   -5.5765 C.3       1 <0>         0.0720
     24 H2         -1.8541  -11.2622   -5.8691 H         1 <0>         0.1445
     25 C17         0.0217  -10.8007   -6.8060 C.2       1 <0>        -0.0904
     26 C18         0.8013  -11.8829   -6.9731 C.2       1 <0>        -0.1730
     27 C19         0.6418  -12.7500   -5.8686 C.2       1 <0>         0.1409
     28 N4         -0.2531  -12.3150   -5.0257 N.2       1 <0>        -0.4705
     29 C20         0.0048   -9.5493   -7.4537 C.2       1 <0>        -0.0942
     30 C21        -0.3004   -8.4843   -6.6524 C.2       1 <0>        -0.0822
     31 H3          1.2535    1.6959    0.1344 H         1 <0>         0.0563
     32 H4         -0.2012    1.7869   -0.8873 H         1 <0>         0.0567
     33 H5         -0.3575    1.7872    0.8858 H         1 <0>         0.1016
     34 H6          1.5355    1.1119   -1.8529 H         1 <0>         0.1305
     35 H7          2.7265   -0.0727   -3.6521 H         1 <0>         0.1281
     36 H8          1.3751   -3.8076   -2.0978 H         1 <0>         0.1369
     37 H9          0.1907   -2.6311   -0.2889 H         1 <0>         0.1308
     38 H10         5.0710   -2.6908   -3.6650 H         1 <0>         0.1424
     39 H11         5.0901   -4.8712   -2.5590 H         1 <0>         0.1539
     40 H12         2.3885   -4.2128   -5.4372 H         1 <0>         0.3547
     41 H13         0.4035   -5.7564   -2.4735 H         1 <0>         0.1194
     42 H14        -0.2114   -4.8530   -3.8785 H         1 <0>         0.1284
     43 H15        -1.2557   -7.3654   -3.8157 H         1 <0>         0.4112
     44 H16        -0.8531  -10.0034   -3.6079 H         1 <0>         0.1375
     45 H17         1.4481  -12.0620   -7.8193 H         1 <0>         0.1468
     46 H18         1.1962  -13.6675   -5.7379 H         1 <0>         0.1737
     47 H19         0.2140   -9.4396   -8.5075 H         1 <0>         0.1453
     48 H20        -0.3809   -7.4942   -7.0763 H         1 <0>         0.1292
@<TRIPOS>BOND
     1    1    2 1
     2    1   31 1
     3    1   32 1
     4    1   33 1
     5    2    3 1
     6    3    8 ar
     7    3    4 ar
     8    4    5 ar
     9    4   34 1
    10    5    6 ar
    11    5   35 1
    12    6    7 ar
    13    6    9 1
    14    7    8 ar
    15    7   36 1
    16    8   37 1
    17    9   10 1
    18    9   16 1
    19    9   11 1
    20   11   12 2
    21   11   38 1
    22   12   13 1
    23   12   39 1
    24   13   14 2
    25   13   15 am
    26   15   16 1
    27   15   17 1
    28   16   40 1
    29   17   18 1
    30   17   41 1
    31   17   42 1
    32   18   19 2
    33   18   20 am
    34   20   21 1
    35   20   43 1
    36   21   30 1
    37   21   22 2
    38   22   23 1
    39   22   44 1
    40   23   24 1
    41   23   28 1
    42   23   25 1
    43   25   26 2
    44   25   29 1
    45   26   27 1
    46   26   45 1
    47   27   28 2
    48   27   46 1
    49   29   30 2
    50   29   47 1
    51   30   48 1
@<TRIPOS>MOLECULE
ZINC67268317
   58    61     0     0     0
SMALL
USER_CHARGES

@<TRIPOS>ATOM
      1 C1          1.4805   -2.4348    3.5319 C.3       1 <0>        -0.1153
      2 C2          1.4079   -1.7626    2.1851 C.ar      1 <0>        -0.0965
      3 C3          1.8133   -2.4402    1.0516 C.ar      1 <0>        -0.1148
      4 C4          1.7469   -1.8240   -0.1844 C.ar      1 <0>        -0.1169
      5 C5          1.2748   -0.5287   -0.2893 C.ar      1 <0>        -0.1141
      6 C6          0.8682    0.1532    0.8413 C.ar      1 <0>        -0.1020
      7 C7          0.9285   -0.4649    2.0819 C.ar      1 <0>         0.0920
      8 O1          0.5234    0.2016    3.1948 O.3       1 <0>        -0.3233
      9 C8         -0.8762    0.1928    3.4828 C.3       1 <0>         0.0994
     10 C9         -1.2259   -1.0693    4.2745 C.3       1 <0>        -0.1652
     11 C10        -2.7324   -1.0925    4.5515 C.3       1 <0>         0.1028
     12 N1         -3.1102    0.1615    5.2174 N.am      1 <0>        -0.6155
     13 C11        -2.7413    1.4357    4.5858 C.3       1 <0>         0.1151
     14 C12        -1.2347    1.4306    4.3084 C.3       1 <0>        -0.1299
     15 C13        -3.7827    0.1434    6.3853 C.2       1 <0>         0.5238
     16 O2         -4.1806    1.1805    6.8721 O.2       1 <0>        -0.5284
     17 C14        -4.0402   -1.1656    7.0862 C.3       1 <0>        -0.1037
     18 C15        -5.0281   -1.9977    6.2657 C.3       1 <0>        -0.1279
     19 C16        -5.2794   -3.3321    6.9724 C.3       1 <0>        -0.1100
     20 C17        -5.8411   -3.0746    8.3663 C.3       1 <0>         0.1210
     21 C18        -4.8784   -2.2246    9.1881 C.3       1 <0>        -0.1123
     22 C19        -4.6288   -0.8947    8.4723 C.3       1 <0>        -0.1084
     23 C20        -7.1922   -2.4036    8.2754 C.2       1 <0>         0.5310
     24 O3         -7.4444   -1.3253    7.7820 O.2       1 <0>        -0.4484
     25 N2         -8.0587   -3.2574    8.8589 N.am      1 <0>        -0.6817
     26 C21        -7.4422   -4.3612    9.2991 C.2       1 <0>         0.7043
     27 O4         -8.0130   -5.2761    9.8597 O.2       1 <0>        -0.5395
     28 N3         -6.1187   -4.3439    9.0510 N.am      1 <0>        -0.7185
     29 C22         0.3539    1.5650    0.7263 C.3       1 <0>        -0.1142
     30 H1          0.5146   -2.8815    3.7677 H         1 <0>         0.0713
     31 H2          2.2444   -3.2121    3.5093 H         1 <0>         0.0660
     32 H3          1.7352   -1.6972    4.2929 H         1 <0>         0.0736
     33 H4          2.1827   -3.4519    1.1309 H         1 <0>         0.1260
     34 H5          2.0646   -2.3553   -1.0694 H         1 <0>         0.1253
     35 H6          1.2243   -0.0494   -1.2558 H         1 <0>         0.1257
     36 H7         -1.4391    0.2034    2.5495 H         1 <0>         0.0647
     37 H8         -0.9489   -1.9503    3.6956 H         1 <0>         0.0849
     38 H9         -0.6823   -1.0684    5.2193 H         1 <0>         0.0803
     39 H10        -3.2755   -1.1848    3.6110 H         1 <0>         0.0730
     40 H11        -2.9721   -1.9364    5.1985 H         1 <0>         0.0983
     41 H12        -3.2851    1.5497    3.6480 H         1 <0>         0.0700
     42 H13        -2.9867    2.2601    5.2554 H         1 <0>         0.1014
     43 H14        -0.6910    1.4079    5.2528 H         1 <0>         0.0786
     44 H15        -0.9638    2.3289    3.7536 H         1 <0>         0.0855
     45 H16        -3.1032   -1.7126    7.1900 H         1 <0>         0.0985
     46 H17        -5.9683   -1.4547    6.1692 H         1 <0>         0.0904
     47 H18        -4.6122   -2.1835    5.2754 H         1 <0>         0.0846
     48 H19        -5.9941   -3.9193    6.3958 H         1 <0>         0.0810
     49 H20        -4.3416   -3.8815    7.0548 H         1 <0>         0.0906
     50 H21        -5.3112   -2.0327   10.1699 H         1 <0>         0.0804
     51 H22        -3.9343   -2.7564    9.3056 H         1 <0>         0.0889
     52 H23        -3.9285   -0.2949    9.0537 H         1 <0>         0.0810
     53 H24        -5.5704   -0.3555    8.3684 H         1 <0>         0.0926
     54 H25        -9.0102   -3.0918    8.9488 H         1 <0>         0.4338
     55 H26        -5.4758   -5.0336    9.2791 H         1 <0>         0.4419
     56 H27        -0.7345    1.5516    0.6685 H         1 <0>         0.0674
     57 H28         0.6643    2.1371    1.6006 H         1 <0>         0.0731
     58 H29         0.7599    2.0275   -0.1734 H         1 <0>         0.0683
@<TRIPOS>BOND
     1    1    2 1
     2    1   30 1
     3    1   31 1
     4    1   32 1
     5    2    7 ar
     6    2    3 ar
     7    3    4 ar
     8    3   33 1
     9    4    5 ar
    10    4   34 1
    11    5    6 ar
    12    5   35 1
    13    6    7 ar
    14    6   29 1
    15    7    8 1
    16    8    9 1
    17    9   14 1
    18    9   10 1
    19    9   36 1
    20   10   11 1
    21   10   37 1
    22   10   38 1
    23   11   12 1
    24   11   39 1
    25   11   40 1
    26   12   13 1
    27   12   15 am
    28   13   14 1
    29   13   41 1
    30   13   42 1
    31   14   43 1
    32   14   44 1
    33   15   16 2
    34   15   17 1
    35   17   22 1
    36   17   18 1
    37   17   45 1
    38   18   19 1
    39   18   46 1
    40   18   47 1
    41   19   20 1
    42   19   48 1
    43   19   49 1
    44   20   28 1
    45   20   21 1
    46   20   23 1
    47   21   22 1
    48   21   50 1
    49   21   51 1
    50   22   52 1
    51   22   53 1
    52   23   24 2
    53   23   25 am
    54   25   26 am
    55   25   54 1
    56   26   27 2
    57   26   28 am
    58   28   55 1
    59   29   56 1
    60   29   57 1
    61   29   58 1
@<TRIPOS>MOLECULE
ZINC35087265
   42    44     0     0     0
SMALL
USER_CHARGES

@<TRIPOS>ATOM
      1 C1         -0.0162    1.3455    0.0094 C.2       1 <0>        -0.2139
      2 C2          1.3219    1.7769   -0.0010 C.2       1 <0>        -0.1488
      3 C3          2.0961    0.6538   -0.0144 C.2       1 <0>        -0.0274
      4 O1          1.2781   -0.4177   -0.0124 O.3       1 <0>        -0.1547
      5 C4          0.0021   -0.0041    0.0020 C.2       1 <0>        -0.0112
      6 C5          3.5658    0.6183   -0.0291 C.ar      1 <0>         0.1876
      7 C6          4.2954    1.1235   -1.1291 C.ar      1 <0>        -0.1399
      8 C7          5.7002    1.0679   -1.0968 C.ar      1 <0>         0.4984
      9 N1          6.3380    0.5526   -0.0575 N.ar      1 <0>        -0.5410
     10 C8          5.6974    0.0673    0.9956 C.ar      1 <0>         0.2457
     11 C9          4.2917    0.0835    1.0584 C.ar      1 <0>        -0.1036
     12 C10         3.6082   -0.4379    2.2036 C.1       1 <0>         0.2555
     13 N2          3.0660   -0.8515    3.1122 N.1       1 <0>        -0.3842
     14 S1          6.6189   -0.6020    2.3400 S.3       1 <0>        -0.0122
     15 C11         8.3479   -0.4063    1.8274 C.3       1 <0>        -0.1055
     16 C12         9.2688   -0.9548    2.9192 C.3       1 <0>         0.0667
     17 N3         10.6690   -0.7963    2.5041 N.3       1 <0>        -0.5314
     18 C13        10.9729   -1.6432    1.3414 C.3       1 <0>         0.0115
     19 C14        12.4210   -1.4029    0.9064 C.3       1 <0>         0.0633
     20 O2         13.2940   -1.6632    2.0089 O.3       1 <0>        -0.3846
     21 C15        13.0266   -0.8553    3.1583 C.3       1 <0>         0.0633
     22 C16        11.5847   -1.0900    3.6161 C.3       1 <0>         0.0176
     23 N4          6.4249    1.5576   -2.1650 N.pl3     1 <0>        -0.8181
     24 C17         3.6151    1.6826   -2.2584 C.1       1 <0>         0.2535
     25 N5          3.0754    2.1260   -3.1543 N.1       1 <0>        -0.3923
     26 H1         -0.8934    1.9754    0.0252 H         1 <0>         0.1582
     27 H2          1.6695    2.7994    0.0008 H         1 <0>         0.1558
     28 H3         -0.8671   -0.6451    0.0074 H         1 <0>         0.2124
     29 H4          8.5165   -0.9547    0.9006 H         1 <0>         0.0998
     30 H5          8.5623    0.6505    1.6683 H         1 <0>         0.1098
     31 H6          9.1003   -0.4064    3.8460 H         1 <0>         0.0894
     32 H7          9.0544   -2.0116    3.0782 H         1 <0>         0.0491
     33 H8         10.8429   -2.6913    1.6107 H         1 <0>         0.0469
     34 H9         10.3001   -1.3911    0.5217 H         1 <0>         0.0896
     35 H10        12.6685   -2.0700    0.0808 H         1 <0>         0.0995
     36 H11        12.5378   -0.3675    0.5862 H         1 <0>         0.0612
     37 H12        13.7121   -1.1264    3.9612 H         1 <0>         0.1007
     38 H13        13.1610    0.1960    2.9035 H         1 <0>         0.0617
     39 H14        11.3584   -0.4342    4.4568 H         1 <0>         0.0900
     40 H15        11.4645   -2.1294    3.9217 H         1 <0>         0.0469
     41 H16         5.9649    1.9364   -2.9303 H         1 <0>         0.4169
     42 H17         7.3942    1.5228   -2.1502 H         1 <0>         0.4183
@<TRIPOS>BOND
     1    1    5 2
     2    1    2 1
     3    1   26 1
     4    2    3 2
     5    2   27 1
     6    3    4 1
     7    3    6 1
     8    4    5 1
     9    5   28 1
    10    6   11 ar
    11    6    7 ar
    12    7    8 ar
    13    7   24 1
    14    8    9 ar
    15    8   23 1
    16    9   10 ar
    17   10   11 ar
    18   10   14 1
    19   11   12 1
    20   12   13 3
    21   14   15 1
    22   15   16 1
    23   15   29 1
    24   15   30 1
    25   16   17 1
    26   16   31 1
    27   16   32 1
    28   17   22 1
    29   17   18 1
    30   18   19 1
    31   18   33 1
    32   18   34 1
    33   19   20 1
    34   19   35 1
    35   19   36 1
    36   20   21 1
    37   21   22 1
    38   21   37 1
    39   21   38 1
    40   22   39 1
    41   22   40 1
    42   23   41 1
    43   23   42 1
    44   24   25 3
@<TRIPOS>MOLECULE
ZINC45625081
   35    36     0     0     0
SMALL
USER_CHARGES

@<TRIPOS>ATOM
      1 C1          7.3374    1.4976   -0.1065 C.ar      1 <0>        -0.0297
      2 C2          6.4541    1.6668    0.9444 C.ar      1 <0>        -0.0889
      3 C3          5.2681    0.9604    0.9736 C.ar      1 <0>        -0.0140
      4 C4          4.9619    0.0737   -0.0616 C.ar      1 <0>        -0.1019
      5 C5          5.8585   -0.0914   -1.1185 C.ar      1 <0>        -0.0249
      6 C6          7.0398    0.6209   -1.1348 C.ar      1 <0>        -0.0395
      7 N1          7.9911    0.4470   -2.2553 N.pl3     1 <0>         0.0295
      8 O1          9.0267    1.0707   -2.2713 O.2       1 <0>        -0.1411
      9 O2          7.7326   -0.3186   -3.1545 O.3       1 <0>        -0.1458
     10 C7          3.6947   -0.6864   -0.0375 C.2       1 <0>         0.5604
     11 O3          2.6364   -0.1002    0.0808 O.2       1 <0>        -0.4935
     12 N2          3.7124   -2.0296   -0.1466 N.am      1 <0>        -0.5994
     13 C8          2.4590   -2.7884   -0.2558 C.3       1 <0>         0.1083
     14 C9          2.4427   -3.8720    0.8270 C.3       1 <0>        -0.1349
     15 C10         3.7070   -4.7261    0.7073 C.3       1 <0>        -0.1027
     16 C11         4.9409   -3.8468    0.9225 C.3       1 <0>        -0.1239
     17 H1          4.8869   -3.3782    1.9051 H         1 <0>         0.1058
     18 C12         4.9857   -2.7625   -0.1648 C.3       1 <0>         0.1111
     19 C13         6.1838   -4.6948    0.8373 C.2       1 <0>         0.5235
     20 O4          6.0923   -5.8854    0.6254 O.2       1 <0>        -0.5291
     21 N3          7.3971   -4.1300    0.9967 N.am      1 <0>        -0.8555
     22 Br1         4.0617    1.1922    2.4113 Br        1 <0>         0.0120
     23 H2          8.2617    2.0559   -0.1269 H         1 <0>         0.1705
     24 H3          6.6927    2.3525    1.7439 H         1 <0>         0.1673
     25 H4          5.6280   -0.7756   -1.9218 H         1 <0>         0.1669
     26 H5          1.6120   -2.1172   -0.1138 H         1 <0>         0.1013
     27 H6          2.3981   -3.2539   -1.2395 H         1 <0>         0.0781
     28 H7          2.4122   -3.4032    1.8105 H         1 <0>         0.0710
     29 H8          1.5636   -4.5032    0.6968 H         1 <0>         0.0873
     30 H9          3.6861   -5.5133    1.4610 H         1 <0>         0.0798
     31 H10         3.7494   -5.1749   -0.2851 H         1 <0>         0.0770
     32 H11         5.1267   -3.2259   -1.1413 H         1 <0>         0.0875
     33 H12         5.8064   -2.0742    0.0372 H         1 <0>         0.0828
     34 H13         7.4704   -3.1777    1.1662 H         1 <0>         0.3986
     35 H14         8.1971   -4.6758    0.9419 H         1 <0>         0.4059
@<TRIPOS>BOND
     1    1    6 ar
     2    1    2 ar
     3    1   23 1
     4    2    3 ar
     5    2   24 1
     6    3    4 ar
     7    3   22 1
     8    4    5 ar
     9    4   10 1
    10    5    6 ar
    11    5   25 1
    12    6    7 1
    13    7    8 2
    14    7    9 1
    15   10   11 2
    16   10   12 am
    17   12   18 1
    18   12   13 1
    19   13   14 1
    20   13   26 1
    21   13   27 1
    22   14   15 1
    23   14   28 1
    24   14   29 1
    25   15   16 1
    26   15   30 1
    27   15   31 1
    28   16   17 1
    29   16   18 1
    30   16   19 1
    31   18   32 1
    32   18   33 1
    33   19   20 2
    34   19   21 am
    35   21   34 1
    36   21   35 1
@<TRIPOS>MOLECULE
ZINC54949843
   42    44     0     0     0
SMALL
USER_CHARGES

@<TRIPOS>ATOM
      1 C1         -0.0170    1.5082    0.0240 C.3       1 <0>        -0.0747
      2 C2          0.0006    0.0014    0.0168 C.2       1 <0>        -0.1274
      3 C3         -1.0423   -0.8645    0.0222 C.2       1 <0>        -0.1679
      4 C4         -0.7859   -2.2227    0.0128 C.2       1 <0>        -0.1267
      5 C5          0.5008   -2.6487   -0.0017 C.2       1 <0>        -0.1768
      6 S1          1.4003   -1.1065   -0.0091 S.3       1 <0>         0.0453
      7 C6          1.0338   -4.0582   -0.0140 C.3       1 <0>         0.2322
      8 H1          0.2624   -4.7415    0.3413 H         1 <0>         0.1156
      9 C7          1.4349   -4.4393   -1.4405 C.3       1 <0>        -0.1624
     10 N1          2.2046   -4.1453    0.8623 N.am      1 <0>        -0.6937
     11 C8          2.5481   -5.3267    1.4125 C.2       1 <0>         0.5169
     12 O1          1.8875   -6.3184    1.1821 O.2       1 <0>        -0.5083
     13 C9          3.7416   -5.4155    2.3058 C.2       1 <0>         0.5105
     14 O2          4.4023   -4.4236    2.5363 O.2       1 <0>        -0.4946
     15 N2          4.0851   -6.5968    2.8561 N.am      1 <0>        -0.6356
     16 C10         5.2563   -6.7015    3.6124 C.ar      1 <0>         0.0727
     17 C11         5.6786   -5.6393    4.4110 C.ar      1 <0>        -0.0498
     18 C12         6.8430   -5.7880    5.1422 C.ar      1 <0>        -0.1431
     19 C13         7.5487   -6.9823    5.0576 C.ar      1 <0>         0.3618
     20 N3          7.1189   -7.9699    4.2894 N.ar      1 <0>        -0.4869
     21 C14         6.0109   -7.8665    3.5824 C.ar      1 <0>         0.1251
     22 N4          8.7278   -7.1418    5.7931 N.pl3     1 <0>        -0.3279
     23 C15         9.5206   -8.2446    5.8050 C.2       1 <0>         0.0783
     24 C16        10.5562   -7.9954    6.6392 C.2       1 <0>        -0.2631
     25 C17        10.3951   -6.7040    7.1537 C.2       1 <0>         0.0674
     26 N5          9.3049   -6.1904    6.6442 N.2       1 <0>        -0.2856
     27 H2          1.0062    1.8836    0.0110 H         1 <0>         0.0743
     28 H3         -0.5478    1.8696   -0.8568 H         1 <0>         0.0839
     29 H4         -0.5222    1.8614    0.9230 H         1 <0>         0.0837
     30 H5         -2.0584   -0.4986    0.0341 H         1 <0>         0.1368
     31 H6         -1.5986   -2.9339    0.0172 H         1 <0>         0.1364
     32 H7          2.2063   -3.7561   -1.7958 H         1 <0>         0.0646
     33 H8          1.8204   -5.4589   -1.4494 H         1 <0>         0.0725
     34 H9          0.5638   -4.3746   -2.0925 H         1 <0>         0.0779
     35 H10         2.7326   -3.3527    1.0464 H         1 <0>         0.4143
     36 H11         3.5197   -7.3745    2.7274 H         1 <0>         0.4282
     37 H12         5.1101   -4.7223    4.4571 H         1 <0>         0.1603
     38 H13         7.1998   -4.9856    5.7710 H         1 <0>         0.1551
     39 H14         5.6890   -8.6957    2.9698 H         1 <0>         0.1738
     40 H15         9.3541   -9.1557    5.2495 H         1 <0>         0.1835
     41 H16        11.3650   -8.6737    6.8677 H         1 <0>         0.1582
     42 H17        11.0595   -6.2135    7.8496 H         1 <0>         0.1951
@<TRIPOS>BOND
     1    1    2 1
     2    1   27 1
     3    1   28 1
     4    1   29 1
     5    2    6 1
     6    2    3 2
     7    3    4 1
     8    3   30 1
     9    4    5 2
    10    4   31 1
    11    5    6 1
    12    5    7 1
    13    7    8 1
    14    7    9 1
    15    7   10 1
    16    9   32 1
    17    9   33 1
    18    9   34 1
    19   10   11 am
    20   10   35 1
    21   11   12 2
    22   11   13 1
    23   13   14 2
    24   13   15 am
    25   15   16 1
    26   15   36 1
    27   16   21 ar
    28   16   17 ar
    29   17   18 ar
    30   17   37 1
    31   18   19 ar
    32   18   38 1
    33   19   20 ar
    34   19   22 1
    35   20   21 ar
    36   21   39 1
    37   22   26 1
    38   22   23 1
    39   23   24 2
    40   23   40 1
    41   24   25 1
    42   24   41 1
    43   25   26 2
    44   25   42 1
@<TRIPOS>MOLECULE
ZINC63376214
   42    45     0     0     0
SMALL
USER_CHARGES

@<TRIPOS>ATOM
      1 C1         -0.0441    1.3206    0.0767 C.ar      1 <0>        -0.1063
      2 C2          1.1314    2.0479    0.0580 C.ar      1 <0>        -0.0909
      3 C3          2.3484    1.3944    0.0187 C.ar      1 <0>        -0.0790
      4 C4          2.3911    0.0114   -0.0016 C.ar      1 <0>        -0.0002
      5 C5          1.2154   -0.7169    0.0175 C.ar      1 <0>        -0.1052
      6 C6         -0.0027   -0.0620    0.0565 C.ar      1 <0>        -0.0201
      7 Cl1        -1.4789   -0.9752    0.0806 Cl        1 <0>        -0.0516
      8 Cl2         3.9200   -0.8094   -0.0517 Cl        1 <0>        -0.0409
      9 C7          3.6294    2.1880   -0.0027 C.3       1 <0>         0.0949
     10 N1          4.2677    2.1230    1.3187 N.3       1 <0>        -0.5289
     11 C8          3.4472    2.7975    2.3335 C.3       1 <0>         0.0380
     12 C9          4.0522    2.5528    3.7200 C.3       1 <0>         0.0818
     13 N2          5.4652    2.9600    3.6916 N.pl3     1 <0>        -0.5178
     14 C10         6.3204    2.4311    2.6183 C.3       1 <0>         0.1045
     15 C11         5.6261    2.6806    1.2752 C.3       1 <0>         0.0369
     16 C12         5.9641    3.7976    4.6262 C.cat     1 <0>         0.5483
     17 N3          5.1788    4.3680    5.5183 N.pl3     1 <0>        -0.5753
     18 C13         5.6379    5.1076    6.5349 C.2       1 <0>         0.5372
     19 N4          6.9168    5.0699    6.9169 N.2       1 <0>        -0.6003
     20 C14         7.7672    4.4356    6.1324 C.2       1 <0>         0.4237
     21 N5          8.9383    3.8877    6.3098 N.2       1 <0>        -0.6131
     22 C15         9.2015    2.9913    5.3515 C.2       1 <0>         0.3482
     23 N6          8.3386    3.0206    4.3699 N.2       1 <0>        -0.6050
     24 C16         7.4267    4.1041    4.6872 C.3       1 <0>        -0.0343
     25 H1          7.6504    4.9621    4.0533 H         1 <0>         0.1594
     26 N7          4.7696    5.9285    7.2035 N.2       1 <0>        -0.7455
     27 H2         -0.9948    1.8318    0.1117 H         1 <0>         0.1420
     28 H3          1.0986    3.1273    0.0739 H         1 <0>         0.1397
     29 H4          1.2482   -1.7962    0.0017 H         1 <0>         0.1459
     30 H5          4.3024    1.7715   -0.7522 H         1 <0>         0.0998
     31 H6          3.4092    3.2267   -0.2492 H         1 <0>         0.0558
     32 H7          3.4247    3.8681    2.1303 H         1 <0>         0.0510
     33 H8          2.4327    2.3999    2.3040 H         1 <0>         0.1061
     34 H9          3.5159    3.1431    4.4629 H         1 <0>         0.0939
     35 H10         3.9812    1.4939    3.9688 H         1 <0>         0.1176
     36 H11         7.2837    2.9410    2.6328 H         1 <0>         0.1409
     37 H12         6.4674    1.3605    2.7612 H         1 <0>         0.1093
     38 H13         6.1919    2.1982    0.4781 H         1 <0>         0.1093
     39 H14         5.5733    3.7528    1.0867 H         1 <0>         0.0479
     40 H15        10.0414    2.3132    5.3855 H         1 <0>         0.2007
     41 H16         4.2203    4.2459    5.4335 H         1 <0>         0.4223
     42 H17         5.0866    6.4709    7.9426 H         1 <0>         0.3596
@<TRIPOS>BOND
     1    1    6 ar
     2    1    2 ar
     3    1   27 1
     4    2    3 ar
     5    2   28 1
     6    3    4 ar
     7    3    9 1
     8    4    5 ar
     9    4    8 1
    10    5    6 ar
    11    5   29 1
    12    6    7 1
    13    9   10 1
    14    9   30 1
    15    9   31 1
    16   10   15 1
    17   10   11 1
    18   11   12 1
    19   11   32 1
    20   11   33 1
    21   12   13 1
    22   12   34 1
    23   12   35 1
    24   13   14 1
    25   13   16 1
    26   14   15 1
    27   14   36 1
    28   14   37 1
    29   15   38 1
    30   15   39 1
    31   16   24 1
    32   16   17 2
    33   17   18 1
    34   17   41 1
    35   18   19 2
    36   18   26 1
    37   19   20 1
    38   20   24 1
    39   20   21 2
    40   21   22 1
    41   22   23 2
    42   22   40 1
    43   23   24 1
    44   24   25 1
    45   26   42 1
@<TRIPOS>MOLECULE
ZINC66909635
   40    42     0     0     0
SMALL
USER_CHARGES

@<TRIPOS>ATOM
      1 C1         -0.0166    1.3753    0.0096 C.ar      1 <0>        -0.1194
      2 C2          1.1701    2.0869    0.0021 C.ar      1 <0>        -0.0839
      3 C3          2.3825    1.4218   -0.0131 C.ar      1 <0>        -0.1144
      4 C4          2.4156    0.0410   -0.0213 C.ar      1 <0>        -0.0093
      5 C5          1.2214   -0.6825   -0.0138 C.ar      1 <0>        -0.0907
      6 C6          0.0021   -0.0041    0.0020 C.ar      1 <0>        -0.0752
      7 C7          1.2486   -2.1601   -0.0230 C.2       1 <0>         0.0572
      8 C8          0.1130   -2.8441   -0.0158 C.2       1 <0>        -0.7498
      9 S1          0.1454   -4.6058   -0.0268 S.o2      1 <0>         2.6815
     10 O1         -0.7530   -5.0222   -1.0459 O.2       1 <0>        -0.9486
     11 O2          1.5143   -4.9868   -0.0156 O.2       1 <0>        -0.9534
     12 N1         -0.4997   -5.1163    1.4104 N.pl3     1 <0>        -0.9991
     13 C9          0.3598   -5.3230    2.5840 C.3       1 <0>         0.1214
     14 C10        -0.2017   -4.5085    3.7548 C.3       1 <0>        -0.1327
     15 C11        -1.6694   -4.8671    3.9629 C.3       1 <0>         0.1256
     16 C12        -2.4856   -4.5557    2.7128 C.3       1 <0>        -0.1326
     17 C13        -1.9424   -5.3647    1.5358 C.3       1 <0>         0.1203
     18 C14        -2.2289   -4.1271    5.1560 C.2       1 <0>         0.5344
     19 O3         -2.3195   -2.9266    5.2986 O.2       1 <0>        -0.4571
     20 N2         -2.6073   -5.0841    6.0285 N.am      1 <0>        -0.6802
     21 C15        -2.3640   -6.3107    5.5509 C.2       1 <0>         0.7049
     22 O4         -2.6189   -7.3341    6.1551 O.2       1 <0>        -0.5364
     23 N3         -1.8056   -6.2836    4.3257 N.am      1 <0>        -0.7163
     24 Cl1         3.9381   -0.7929   -0.0415 Cl        1 <0>        -0.0523
     25 H1         -0.9599    1.9011    0.0260 H         1 <0>         0.1371
     26 H2          1.1494    3.1667    0.0077 H         1 <0>         0.1391
     27 H3          3.3051    1.9831   -0.0189 H         1 <0>         0.1416
     28 H4         -0.9251   -0.5578    0.0079 H         1 <0>         0.1387
     29 H5          2.1937   -2.6827   -0.0355 H         1 <0>         0.1490
     30 H6         -0.8321   -2.3215   -0.0032 H         1 <0>         0.1642
     31 H7          0.3714   -6.3808    2.8469 H         1 <0>         0.0830
     32 H8          1.3726   -4.9889    2.3587 H         1 <0>         0.1063
     33 H9          0.3606   -4.7378    4.6600 H         1 <0>         0.0924
     34 H10        -0.1153   -3.4449    3.5324 H         1 <0>         0.0979
     35 H11        -3.5294   -4.8182    2.8853 H         1 <0>         0.0931
     36 H12        -2.4106   -3.4924    2.4852 H         1 <0>         0.0973
     37 H13        -2.4470   -5.0582    0.6196 H         1 <0>         0.1070
     38 H14        -2.1164   -6.4259    1.7141 H         1 <0>         0.0827
     39 H15        -3.0058   -4.9054    6.8946 H         1 <0>         0.4348
     40 H16        -1.5447   -7.0484    3.7892 H         1 <0>         0.4421
@<TRIPOS>BOND
     1    1    6 ar
     2    1    2 ar
     3    1   25 1
     4    2    3 ar
     5    2   26 1
     6    3    4 ar
     7    3   27 1
     8    4    5 ar
     9    4   24 1
    10    5    6 ar
    11    5    7 1
    12    6   28 1
    13    7    8 2
    14    7   29 1
    15    8    9 1
    16    8   30 1
    17    9   10 2
    18    9   11 2
    19    9   12 1
    20   12   17 1
    21   12   13 1
    22   13   14 1
    23   13   31 1
    24   13   32 1
    25   14   15 1
    26   14   33 1
    27   14   34 1
    28   15   23 1
    29   15   16 1
    30   15   18 1
    31   16   17 1
    32   16   35 1
    33   16   36 1
    34   17   37 1
    35   17   38 1
    36   18   19 2
    37   18   20 am
    38   20   21 am
    39   20   39 1
    40   21   22 2
    41   21   23 am
    42   23   40 1
@<TRIPOS>MOLECULE
ZINC19986516
   50    52     0     0     0
SMALL
USER_CHARGES
3-[(1S)-2-[(2-ethyl-6-methyl-phenyl)amino]-1-methyl-2-oxo-ethyl]-5-methyl-4-oxo-thieno[5,4-d]pyrimidine-6-carboxamide
@<TRIPOS>ATOM
      1 C1          2.8816    1.8838    2.9180 C.3       1 <0>        -0.1461
      2 C2          2.8314    0.5430    2.1826 C.3       1 <0>        -0.0808
      3 C3          1.9105    0.6556    0.9951 C.ar      1 <0>        -0.0841
      4 C4          0.5890    0.2692    1.1059 C.ar      1 <0>        -0.1135
      5 C5         -0.2565    0.3722    0.0168 C.ar      1 <0>        -0.1121
      6 C6          0.2173    0.8629   -1.1863 C.ar      1 <0>        -0.1139
      7 C7          1.5373    1.2513   -1.3035 C.ar      1 <0>        -0.0691
      8 C8          2.3894    1.1483   -0.2115 C.ar      1 <0>         0.1390
      9 N1          3.7275    1.5409   -0.3269 N.am      1 <0>        -0.6766
     10 C9          4.0308    2.7863   -0.7436 C.2       1 <0>         0.5096
     11 O1          3.1466    3.5949   -0.9321 O.2       1 <0>        -0.5085
     12 C10         5.4685    3.1740   -0.9755 C.3       1 <0>         0.0934
     13 H1          5.8985    2.5508   -1.7734 H         1 <0>         0.1506
     14 C11         6.2551    3.0184    0.3275 C.3       1 <0>        -0.1644
     15 N2          5.5325    4.5682   -1.4210 N.am      1 <0>        -0.5177
     16 C12         5.0415    5.5447   -0.6189 C.2       1 <0>         0.4285
     17 N3          5.0773    6.8034   -0.9629 N.2       1 <0>        -0.4969
     18 C13         5.5875    7.1928   -2.1242 C.2       1 <0>         0.1275
     19 C14         6.1256    6.2695   -3.0495 C.2       1 <0>        -0.2597
     20 C15         6.0731    4.8529   -2.6219 C.2       1 <0>         0.5633
     21 O2          6.5070    3.9677   -3.3375 O.2       1 <0>        -0.5032
     22 C16         6.6298    6.8167   -4.2315 C.2       1 <0>         0.0347
     23 C17         6.5804    8.1653   -4.4306 C.2       1 <0>        -0.2555
     24 S1          5.8065    8.7567   -2.9349 S.3       1 <0>         0.1793
     25 C18         7.0480    8.9375   -5.5861 C.2       1 <0>         0.6172
     26 O3          7.5589    8.3677   -6.5323 O.2       1 <0>        -0.5284
     27 N4          6.9119   10.2783   -5.6002 N.am      1 <0>        -0.8689
     28 C19         7.2260    5.9191   -5.2851 C.3       1 <0>        -0.1331
     29 C20         2.0528    1.7854   -2.6149 C.3       1 <0>        -0.1100
     30 H2          3.5538    1.8016    3.7848 H         1 <0>         0.0601
     31 H3          1.8715    2.1517    3.2614 H         1 <0>         0.0577
     32 H4          3.2556    2.6620    2.2364 H         1 <0>         0.0524
     33 H5          3.8415    0.2751    1.8392 H         1 <0>         0.0680
     34 H6          2.4574   -0.2353    2.8641 H         1 <0>         0.0757
     35 H7          0.2159   -0.1140    2.0441 H         1 <0>         0.1263
     36 H8         -1.2893    0.0691    0.1058 H         1 <0>         0.1255
     37 H9         -0.4446    0.9383   -2.0364 H         1 <0>         0.1254
     38 H10         4.5318    0.8331   -0.0775 H         1 <0>         0.4331
     39 H11         7.3045    3.3014    0.1583 H         1 <0>         0.0855
     40 H12         6.2070    1.9716    0.6621 H         1 <0>         0.0916
     41 H13         5.8193    3.6703    1.0989 H         1 <0>         0.0761
     42 H14         4.6125    5.2738    0.3346 H         1 <0>         0.2105
     43 H15         7.2627   10.8576   -6.4670 H         1 <0>         0.4346
     44 H16         6.4501   10.7933   -4.7449 H         1 <0>         0.4184
     45 H17         7.5661    6.5279   -6.1358 H         1 <0>         0.1089
     46 H18         6.4661    5.2016   -5.6283 H         1 <0>         0.0759
     47 H19         8.0809    5.3727   -4.8602 H         1 <0>         0.0764
     48 H20         3.1182    2.0398   -2.5138 H         1 <0>         0.0566
     49 H21         1.4855    2.6861   -2.8924 H         1 <0>         0.0734
     50 H22         1.9310    1.0202   -3.3957 H         1 <0>         0.0677
@<TRIPOS>BOND
     1    1    2 1
     2    1   30 1
     3    1   31 1
     4    1   32 1
     5    2    3 1
     6    2   33 1
     7    2   34 1
     8    3    8 ar
     9    3    4 ar
    10    4    5 ar
    11    4   35 1
    12    5    6 ar
    13    5   36 1
    14    6    7 ar
    15    6   37 1
    16    7    8 ar
    17    7   29 1
    18    8    9 1
    19    9   10 am
    20    9   38 1
    21   10   11 2
    22   10   12 1
    23   12   13 1
    24   12   14 1
    25   12   15 1
    26   14   39 1
    27   14   40 1
    28   14   41 1
    29   15   20 am
    30   15   16 1
    31   16   17 2
    32   16   42 1
    33   17   18 1
    34   18   24 1
    35   18   19 2
    36   19   20 1
    37   19   22 1
    38   20   21 2
    39   22   23 2
    40   22   28 1
    41   23   24 1
    42   23   25 1
    43   25   26 2
    44   25   27 am
    45   27   43 1
    46   27   44 1
    47   28   45 1
    48   28   46 1
    49   28   47 1
    50   29   48 1
    51   29   49 1
    52   29   50 1
@<TRIPOS>MOLECULE
ZINC14498814
   51    53     0     0     0
SMALL
USER_CHARGES

@<TRIPOS>ATOM
      1 C1          1.2777   -2.4423   -0.3038 C.3       1 <0>        -0.1922
      2 C2          0.3181   -1.7444   -1.2698 C.3       1 <0>         0.1753
      3 C3          0.5890   -2.2279   -2.6959 C.3       1 <0>        -0.1777
      4 C4         -1.1248   -2.0763   -0.8842 C.3       1 <0>        -0.1505
      5 N1          0.5217   -0.2953   -1.1986 N.pl3     1 <0>        -1.1072
      6 S1          2.0462    0.3348   -1.3434 S.o2      1 <0>         2.6956
      7 O1          2.6559   -0.3259   -2.4439 O.2       1 <0>        -0.9517
      8 O2          1.9089    1.7479   -1.2841 O.2       1 <0>        -0.9579
      9 C5          2.9467   -0.1444    0.0933 C.ar      1 <0>        -0.6567
     10 C6          2.7828    0.5536    1.2760 C.ar      1 <0>        -0.0312
     11 C7          3.4872    0.1804    2.4057 C.ar      1 <0>        -0.1190
     12 C8          4.3572   -0.8914    2.3563 C.ar      1 <0>        -0.0644
     13 C9          4.5239   -1.5942    1.1704 C.ar      1 <0>         0.1270
     14 C10         3.8109   -1.2201    0.0387 C.ar      1 <0>        -0.0441
     15 N2          5.4048   -2.6801    1.1170 N.am      1 <0>        -0.6726
     16 C11         5.5819   -3.4583    2.2030 C.2       1 <0>         0.5150
     17 O3          4.9137   -3.2721    3.1980 O.2       1 <0>        -0.4974
     18 C12         6.6102   -4.5597    2.1812 C.3       1 <0>        -0.0613
     19 H1          7.5964   -4.1324    1.9997 H         1 <0>         0.1304
     20 C13         6.2716   -5.5509    1.0672 C.3       1 <0>        -0.1362
     21 C14         5.0525   -6.3487    1.4443 C.2       1 <0>         0.5188
     22 O4          4.2623   -6.6780    0.5851 O.2       1 <0>        -0.5173
     23 N3          4.8291   -6.7015    2.7236 N.am      1 <0>        -0.6601
     24 C15         5.7196   -6.3167    3.7306 C.ar      1 <0>         0.1749
     25 C16         6.6090   -5.2739    3.5078 C.ar      1 <0>        -0.1105
     26 C17         7.4893   -4.8943    4.5011 C.ar      1 <0>        -0.0689
     27 C18         7.4858   -5.5526    5.7176 C.ar      1 <0>        -0.1393
     28 C19         6.6015   -6.5914    5.9425 C.ar      1 <0>        -0.0791
     29 C20         5.7174   -6.9740    4.9533 C.ar      1 <0>        -0.1516
     30 H2          2.2943   -2.3781   -0.6918 H         1 <0>         0.0691
     31 H3          1.2293   -1.9564    0.6707 H         1 <0>         0.0693
     32 H4          0.9930   -3.4895   -0.2022 H         1 <0>         0.0799
     33 H5          0.2342   -3.2527   -2.8057 H         1 <0>         0.0682
     34 H6          0.0656   -1.5846   -3.4033 H         1 <0>         0.0645
     35 H7          1.6600   -2.1909   -2.8949 H         1 <0>         0.0837
     36 H8         -1.3177   -1.7318    0.1318 H         1 <0>         0.0635
     37 H9         -1.8084   -1.5791   -1.5724 H         1 <0>         0.0655
     38 H10        -1.2762   -3.1544   -0.9372 H         1 <0>         0.0731
     39 H11        -0.2366    0.2950   -1.0665 H         1 <0>         0.4191
     40 H12         2.1035    1.3921    1.3171 H         1 <0>         0.1394
     41 H13         3.3573    0.7277    3.3276 H         1 <0>         0.1378
     42 H14         4.9074   -1.1821    3.2390 H         1 <0>         0.1432
     43 H15         3.9353   -1.7673   -0.8840 H         1 <0>         0.1482
     44 H16         5.8880   -2.8728    0.2982 H         1 <0>         0.4144
     45 H17         6.0757   -5.0051    0.1442 H         1 <0>         0.1136
     46 H18         7.1135   -6.2262    0.9152 H         1 <0>         0.1238
     47 H19         4.0449   -7.2261    2.9487 H         1 <0>         0.4141
     48 H20         8.1812   -4.0833    4.3282 H         1 <0>         0.1291
     49 H21         8.1756   -5.2548    6.4934 H         1 <0>         0.1289
     50 H22         6.6013   -7.1031    6.8936 H         1 <0>         0.1310
     51 H23         5.0271   -7.7856    5.1298 H         1 <0>         0.1304
@<TRIPOS>BOND
     1    1    2 1
     2    1   30 1
     3    1   31 1
     4    1   32 1
     5    2    3 1
     6    2    4 1
     7    2    5 1
     8    3   33 1
     9    3   34 1
    10    3   35 1
    11    4   36 1
    12    4   37 1
    13    4   38 1
    14    5    6 1
    15    5   39 1
    16    6    7 2
    17    6    8 2
    18    6    9 1
    19    9   14 ar
    20    9   10 ar
    21   10   11 ar
    22   10   40 1
    23   11   12 ar
    24   11   41 1
    25   12   13 ar
    26   12   42 1
    27   13   14 ar
    28   13   15 1
    29   14   43 1
    30   15   16 am
    31   15   44 1
    32   16   17 2
    33   16   18 1
    34   18   19 1
    35   18   25 1
    36   18   20 1
    37   20   21 1
    38   20   45 1
    39   20   46 1
    40   21   22 2
    41   21   23 am
    42   23   24 1
    43   23   47 1
    44   24   29 ar
    45   24   25 ar
    46   25   26 ar
    47   26   27 ar
    48   26   48 1
    49   27   28 ar
    50   27   49 1
    51   28   29 ar
    52   28   50 1
    53   29   51 1
@<TRIPOS>MOLECULE
ZINC64098422
   48    50     0     0     0
SMALL
USER_CHARGES

@<TRIPOS>ATOM
      1 C1         -0.0184    1.5028    0.0103 C.3       1 <0>        -0.1177
      2 C2          0.0021   -0.0041    0.0020 C.ar      1 <0>        -0.0677
      3 C3          0.0057   -0.6882   -1.2000 C.ar      1 <0>        -0.1271
      4 C4          0.0240   -2.0707   -1.2121 C.ar      1 <0>        -0.0925
      5 C5          0.0391   -2.7732   -0.0230 C.ar      1 <0>        -0.1599
      6 C6          0.0360   -2.0893    1.1859 C.ar      1 <0>         0.1435
      7 C7          0.0228   -0.7000    1.1944 C.ar      1 <0>        -0.1299
      8 N1          0.0513   -2.7965    2.3902 N.pl3     1 <0>        -1.0545
      9 S1          1.0834   -4.0767    2.5856 S.o2      1 <0>         2.6913
     10 O1          0.8828   -4.5623    3.9060 O.2       1 <0>        -0.9430
     11 O2          0.9290   -4.9016    1.4389 O.2       1 <0>        -0.9425
     12 C8          2.7240   -3.4367    2.5283 C.ar      1 <0>        -0.6832
     13 C9          3.3870   -3.3439    1.3172 C.ar      1 <0>         0.0100
     14 C10         4.6750   -2.8422    1.2634 C.ar      1 <0>        -0.1423
     15 C11         5.3073   -2.4310    2.4188 C.ar      1 <0>        -0.0301
     16 C12         4.6444   -2.5219    3.6435 C.ar      1 <0>        -0.1506
     17 C13         3.3426   -3.0238    3.6900 C.ar      1 <0>         0.0423
     18 C14         5.3160   -2.0836    4.8856 C.2       1 <0>         0.5670
     19 O3          4.7361   -2.1639    5.9508 O.2       1 <0>        -0.5092
     20 N2          6.5711   -1.5950    4.8367 N.am      1 <0>        -0.7142
     21 C15         7.2366   -1.1608    6.0674 C.3       1 <0>         0.1370
     22 C16         8.7534   -1.2593    5.8873 C.3       1 <0>        -0.1311
     23 C17         9.4287   -0.5492    7.0668 C.3       1 <0>        -0.1351
     24 C18         9.1402    0.9492    6.9664 C.3       1 <0>         0.1061
     25 N3          7.7123    1.1832    6.7915 N.am      1 <0>        -0.7206
     26 C19         6.8491    0.2582    6.3700 C.2       1 <0>         0.5015
     27 O4          5.6891    0.5803    6.2228 O.2       1 <0>        -0.5297
     28 H1          1.0042    1.8801    0.0026 H         1 <0>         0.0726
     29 H2         -0.5455    1.8639   -0.8728 H         1 <0>         0.0698
     30 H3         -0.5286    1.8543    0.9071 H         1 <0>         0.0680
     31 H4         -0.0061   -0.1414   -2.1312 H         1 <0>         0.1258
     32 H5          0.0260   -2.6019   -2.1525 H         1 <0>         0.1314
     33 H6          0.0530   -3.8531   -0.0331 H         1 <0>         0.1579
     34 H7          0.0245   -0.1651    2.1327 H         1 <0>         0.1284
     35 H8         -0.5427   -2.5378    3.1122 H         1 <0>         0.4293
     36 H9          2.8968   -3.6651    0.4100 H         1 <0>         0.1473
     37 H10         5.1869   -2.7724    0.3150 H         1 <0>         0.1433
     38 H11         6.3132   -2.0401    2.3756 H         1 <0>         0.1346
     39 H12         2.8225   -3.0926    4.6340 H         1 <0>         0.1550
     40 H13         7.0338   -1.5310    3.9866 H         1 <0>         0.4024
     41 H14         6.9286   -1.8039    6.8919 H         1 <0>         0.1235
     42 H15         9.0535   -2.3070    5.8692 H         1 <0>         0.0885
     43 H16         9.0442   -0.7776    4.9537 H         1 <0>         0.0785
     44 H17         9.0293   -0.9365    8.0041 H         1 <0>         0.0790
     45 H18        10.5049   -0.7178    7.0276 H         1 <0>         0.0950
     46 H19         9.4772    1.4428    7.8779 H         1 <0>         0.0815
     47 H20         9.6802    1.3638    6.1151 H         1 <0>         0.0688
     48 H21         7.3682    2.0671    6.9948 H         1 <0>         0.4014
@<TRIPOS>BOND
     1    1    2 1
     2    1   28 1
     3    1   29 1
     4    1   30 1
     5    2    7 ar
     6    2    3 ar
     7    3    4 ar
     8    3   31 1
     9    4    5 ar
    10    4   32 1
    11    5    6 ar
    12    5   33 1
    13    6    7 ar
    14    6    8 1
    15    7   34 1
    16    8    9 1
    17    8   35 1
    18    9   10 2
    19    9   11 2
    20    9   12 1
    21   12   17 ar
    22   12   13 ar
    23   13   14 ar
    24   13   36 1
    25   14   15 ar
    26   14   37 1
    27   15   16 ar
    28   15   38 1
    29   16   17 ar
    30   16   18 1
    31   17   39 1
    32   18   19 2
    33   18   20 am
    34   20   21 1
    35   20   40 1
    36   21   26 1
    37   21   22 1
    38   21   41 1
    39   22   23 1
    40   22   42 1
    41   22   43 1
    42   23   24 1
    43   23   44 1
    44   23   45 1
    45   24   25 1
    46   24   46 1
    47   24   47 1
    48   25   26 am
    49   25   48 1
    50   26   27 2
@<TRIPOS>MOLECULE
ZINC66907994
   54    57     0     0     0
SMALL
USER_CHARGES

@<TRIPOS>ATOM
      1 C1          0.3074    2.2313    0.5157 C.3       1 <0>        -0.1605
      2 C2          0.2123    0.7256    0.2618 C.3       1 <0>         0.2034
      3 H1         -0.8358    0.4336    0.1962 H         1 <0>         0.1009
      4 C3          0.9094    0.3891   -1.0312 C.ar      1 <0>        -0.0938
      5 C4          2.2865    0.2674   -1.0614 C.ar      1 <0>        -0.0900
      6 C5          2.9281   -0.0413   -2.2449 C.ar      1 <0>        -0.1058
      7 C6          2.1890   -0.2295   -3.4050 C.ar      1 <0>         0.1504
      8 C7          0.8065   -0.1066   -3.3716 C.ar      1 <0>        -0.1277
      9 C8          0.1701    0.1971   -2.1839 C.ar      1 <0>        -0.0783
     10 N1          2.8375   -0.5425   -4.6080 N.pl3     1 <0>        -0.3322
     11 C9          2.2597   -0.7470   -5.8077 C.2       1 <0>         0.2624
     12 N2          3.2048   -1.0141   -6.6722 N.2       1 <0>        -0.5351
     13 C10         4.3918   -0.9895   -6.0669 C.2       1 <0>         0.2098
     14 N3          4.2194   -0.6992   -4.8037 N.2       1 <0>        -0.3144
     15 N4          0.8524    0.0032    1.3640 N.am      1 <0>        -0.7418
     16 C11         0.1552   -0.2724    2.4840 C.2       1 <0>         0.7063
     17 O1         -1.0049    0.0785    2.5797 O.2       1 <0>        -0.5878
     18 N5          0.7441   -0.9370    3.4979 N.am      1 <0>        -0.7391
     19 C12        -0.0137   -1.2366    4.7154 C.3       1 <0>         0.1161
     20 C13         0.9162   -1.8704    5.7519 C.3       1 <0>         0.1706
     21 C14         2.0808   -0.9222    6.0302 C.3       1 <0>        -0.1044
     22 C15         2.8771   -1.4706    7.2202 C.3       1 <0>        -0.1180
     23 C16         2.0285   -1.3140    8.4805 C.3       1 <0>        -0.0866
     24 C17         0.6531   -1.8901    8.2676 C.ar      1 <0>        -0.0534
     25 C18         0.1408   -2.1420    7.0145 C.ar      1 <0>        -0.1117
     26 C19        -1.1380   -2.6682    6.8874 C.ar      1 <0>        -0.1131
     27 C20        -1.8973   -2.9436    8.0061 C.ar      1 <0>        -0.1229
     28 C21        -1.3816   -2.6945    9.2641 C.ar      1 <0>        -0.1082
     29 C22        -0.1119   -2.1699    9.3924 C.ar      1 <0>        -0.1245
     30 O2          1.4252   -3.1025    5.2373 O.3       1 <0>        -0.5468
     31 H2          1.3556    2.5233    0.5813 H         1 <0>         0.0590
     32 H3         -0.1688    2.7688   -0.3043 H         1 <0>         0.0694
     33 H4         -0.1967    2.4747    1.4509 H         1 <0>         0.0684
     34 H5          2.8609    0.4143   -0.1587 H         1 <0>         0.1319
     35 H6          4.0037   -0.1358   -2.2679 H         1 <0>         0.1408
     36 H7          0.2289   -0.2524   -4.2724 H         1 <0>         0.1361
     37 H8         -0.9056    0.2887   -2.1564 H         1 <0>         0.1403
     38 H9          1.2016   -0.6990   -6.0188 H         1 <0>         0.2235
     39 H10         5.3429   -1.1745   -6.5437 H         1 <0>         0.2248
     40 H11         1.7780   -0.2768    1.2876 H         1 <0>         0.3955
     41 H12         1.6697   -1.2170    3.4215 H         1 <0>         0.4003
     42 H13        -0.4327   -0.3146    5.1186 H         1 <0>         0.0804
     43 H14        -0.8211   -1.9298    4.4794 H         1 <0>         0.0701
     44 H15         2.7249   -0.8645    5.1528 H         1 <0>         0.0751
     45 H16         1.6975    0.0694    6.2707 H         1 <0>         0.0811
     46 H17         3.1015   -2.5247    7.0573 H         1 <0>         0.0763
     47 H18         3.8053   -0.9099    7.3306 H         1 <0>         0.0711
     48 H19         2.5125   -1.8349    9.3067 H         1 <0>         0.0781
     49 H20         1.9409   -0.2556    8.7257 H         1 <0>         0.0789
     50 H21        -1.5418   -2.8631    5.9049 H         1 <0>         0.1232
     51 H22        -2.8910   -3.3529    7.8992 H         1 <0>         0.1247
     52 H23        -1.9705   -2.9094   10.1435 H         1 <0>         0.1245
     53 H24         0.2903   -1.9751   10.3756 H         1 <0>         0.1236
     54 H25         0.7416   -3.7537    5.0282 H         1 <0>         0.3792
@<TRIPOS>BOND
     1    1    2 1
     2    1   31 1
     3    1   32 1
     4    1   33 1
     5    2    3 1
     6    2    4 1
     7    2   15 1
     8    4    9 ar
     9    4    5 ar
    10    5    6 ar
    11    5   34 1
    12    6    7 ar
    13    6   35 1
    14    7    8 ar
    15    7   10 1
    16    8    9 ar
    17    8   36 1
    18    9   37 1
    19   10   14 1
    20   10   11 1
    21   11   12 2
    22   11   38 1
    23   12   13 1
    24   13   14 2
    25   13   39 1
    26   15   16 am
    27   15   40 1
    28   16   17 2
    29   16   18 am
    30   18   19 1
    31   18   41 1
    32   19   20 1
    33   19   42 1
    34   19   43 1
    35   20   25 1
    36   20   21 1
    37   20   30 1
    38   21   22 1
    39   21   44 1
    40   21   45 1
    41   22   23 1
    42   22   46 1
    43   22   47 1
    44   23   24 1
    45   23   48 1
    46   23   49 1
    47   24   29 ar
    48   24   25 ar
    49   25   26 ar
    50   26   27 ar
    51   26   50 1
    52   27   28 ar
    53   27   51 1
    54   28   29 ar
    55   28   52 1
    56   29   53 1
    57   30   54 1
@<TRIPOS>MOLECULE
ZINC67534441
   44    45     0     0     0
SMALL
USER_CHARGES

@<TRIPOS>ATOM
      1 C1         -0.0747    1.4668    0.0343 C.3       1 <0>        -0.0743
      2 C2         -0.0506   -0.0400    0.0277 C.2       1 <0>        -0.1286
      3 C3         -1.0897   -0.9104    0.0357 C.2       1 <0>        -0.1676
      4 C4         -0.8274   -2.2675    0.0263 C.2       1 <0>        -0.1277
      5 C5          0.4612   -2.6879    0.0094 C.2       1 <0>        -0.1754
      6 S1          1.3538   -1.1418   -0.0005 S.3       1 <0>         0.0461
      7 C6          1.0002   -4.0951   -0.0035 C.3       1 <0>         0.2321
      8 H1          0.2326   -4.7815    0.3537 H         1 <0>         0.1153
      9 C7          1.4001   -4.4750   -1.4306 C.3       1 <0>        -0.1626
     10 N1          2.1732   -4.1767    0.8705 N.am      1 <0>        -0.6943
     11 C8          2.5230   -5.3563    1.4205 C.2       1 <0>         0.5164
     12 O1          1.8662   -6.3509    1.1919 O.2       1 <0>        -0.5086
     13 C9          3.7187   -5.4395    2.3114 C.2       1 <0>         0.5115
     14 O2          4.3755   -4.4447    2.5401 O.2       1 <0>        -0.4937
     15 N2          4.0685   -6.6191    2.8615 N.am      1 <0>        -0.6393
     16 C10         5.2402   -6.7178    3.6176 C.ar      1 <0>         0.1484
     17 C11         5.6462   -5.6530    4.4129 C.ar      1 <0>        -0.1000
     18 C12         6.8042   -5.7490    5.1602 C.ar      1 <0>        -0.1124
     19 C13         7.5628   -6.9052    5.1195 C.ar      1 <0>         0.0711
     20 C14         7.1609   -7.9741    4.3256 C.ar      1 <0>         0.1453
     21 C15         5.9959   -7.8815    3.5788 C.ar      1 <0>        -0.1127
     22 N3          7.9293   -9.1446    4.2841 N.am      1 <0>        -0.6466
     23 C16         8.0192   -9.8515    3.1401 C.2       1 <0>         0.6508
     24 O3          7.3689   -9.5203    2.1686 O.2       1 <0>        -0.5487
     25 O4          8.8296  -10.9247    3.0739 O.3       1 <0>        -0.3582
     26 C17         8.8757  -11.6270    1.8302 C.3       1 <0>         0.0520
     27 F1          8.6950   -6.9958    5.8510 F         1 <0>        -0.1322
     28 H2          0.9469    1.8466    0.0191 H         1 <0>         0.0743
     29 H3         -0.6089    1.8255   -0.8455 H         1 <0>         0.0835
     30 H4         -0.5796    1.8182    0.9342 H         1 <0>         0.0835
     31 H5         -2.1073   -0.5489    0.0495 H         1 <0>         0.1365
     32 H6         -1.6370   -2.9822    0.0327 H         1 <0>         0.1362
     33 H7          0.5274   -4.4143   -2.0808 H         1 <0>         0.0774
     34 H8          2.1678   -3.7886   -1.7878 H         1 <0>         0.0646
     35 H9          1.7900   -5.4929   -1.4398 H         1 <0>         0.0726
     36 H10         2.6981   -3.3817    1.0532 H         1 <0>         0.4142
     37 H11         3.5072   -7.3997    2.7328 H         1 <0>         0.4266
     38 H12         5.0559   -4.7492    4.4465 H         1 <0>         0.1534
     39 H13         7.1180   -4.9198    5.7769 H         1 <0>         0.1503
     40 H14         5.6796   -8.7117    2.9647 H         1 <0>         0.1585
     41 H15         8.3967   -9.4463    5.0787 H         1 <0>         0.4237
     42 H16         7.8801  -11.9962    1.5843 H         1 <0>         0.0650
     43 H17         9.2175  -10.9530    1.0448 H         1 <0>         0.0648
     44 H18         9.5647  -12.4676    1.9129 H         1 <0>         0.1089
@<TRIPOS>BOND
     1    1    2 1
     2    1   28 1
     3    1   29 1
     4    1   30 1
     5    2    6 1
     6    2    3 2
     7    3    4 1
     8    3   31 1
     9    4    5 2
    10    4   32 1
    11    5    6 1
    12    5    7 1
    13    7    8 1
    14    7    9 1
    15    7   10 1
    16    9   33 1
    17    9   34 1
    18    9   35 1
    19   10   11 am
    20   10   36 1
    21   11   12 2
    22   11   13 1
    23   13   14 2
    24   13   15 am
    25   15   16 1
    26   15   37 1
    27   16   21 ar
    28   16   17 ar
    29   17   18 ar
    30   17   38 1
    31   18   19 ar
    32   18   39 1
    33   19   20 ar
    34   19   27 1
    35   20   21 ar
    36   20   22 1
    37   21   40 1
    38   22   23 am
    39   22   41 1
    40   23   24 2
    41   23   25 1
    42   25   26 1
    43   26   42 1
    44   26   43 1
    45   26   44 1
@<TRIPOS>MOLECULE
ZINC17077766
   49    51     0     0     0
SMALL
USER_CHARGES
2-[2-[[3-(cyclopentylcarbamoyl)-4,5,6,7-tetrahydrobenzothiophen-2-yl]amino]-2-oxo-ethoxy]acetic acid
@<TRIPOS>ATOM
      1 C1         -0.0127    1.0858    0.0080 C.3       1 <0>        -0.1173
      2 C2         -0.7261    1.5780    1.2706 C.3       1 <0>        -0.1144
      3 C3         -0.5138    3.0940    1.3988 C.3       1 <0>        -0.0335
      4 C4         -0.8134    3.7244    0.0738 C.2       1 <0>        -0.2195
      5 C5         -0.9277    3.0997   -1.1184 C.2       1 <0>        -0.0641
      6 C6         -1.2271    3.9669   -2.2451 C.2       1 <0>        -0.2399
      7 C7         -1.3628    5.3244   -1.9914 C.2       1 <0>         0.0871
      8 S1         -1.0957    5.4353   -0.2830 S.3       1 <0>         0.2369
      9 N1         -1.6440    6.3445   -2.8875 N.am      1 <0>        -0.6247
     10 C8         -1.7386    7.6166   -2.4524 C.2       1 <0>         0.5072
     11 O1         -1.5779    7.8691   -1.2771 O.2       1 <0>        -0.4627
     12 C9         -2.0442    8.7253   -3.4264 C.3       1 <0>         0.0456
     13 O2         -2.0923    9.9718   -2.7293 O.3       1 <0>        -0.3378
     14 C10        -2.3771   11.0949   -3.5658 C.3       1 <0>         0.0206
     15 C11        -2.4035   12.3492   -2.7309 C.2       1 <0>         0.4667
     16 O3         -2.1994   12.2877   -1.5416 O.co2     1 <0>        -0.6108
     17 C12        -1.3797    3.4277   -3.6000 C.2       1 <0>         0.5853
     18 O4         -2.4744    3.0686   -3.9924 O.2       1 <0>        -0.5320
     19 N2         -0.3077    3.3296   -4.4110 N.am      1 <0>        -0.7198
     20 C13        -0.4601    2.7909   -5.7647 C.3       1 <0>         0.1374
     21 C14        -0.3111    1.2556   -5.7424 C.3       1 <0>        -0.1342
     22 C15         0.4426    0.9279   -7.0552 C.3       1 <0>        -0.1244
     23 C16         1.4481    2.1001   -7.1737 C.3       1 <0>        -0.1239
     24 C17         0.6584    3.3278   -6.6748 C.3       1 <0>        -0.1329
     25 C18        -0.7492    1.5909   -1.2340 C.3       1 <0>        -0.0573
     26 H1          0.0021   -0.0041    0.0020 H         1 <0>         0.0668
     27 H2          1.0103    1.4619    0.0003 H         1 <0>         0.0660
     28 H3         -1.7918    1.3616    1.1959 H         1 <0>         0.0677
     29 H4         -0.3098    1.0767    2.1444 H         1 <0>         0.0713
     30 H5          0.5195    3.2997    1.6781 H         1 <0>         0.0809
     31 H6         -1.1861    3.4957    2.1569 H         1 <0>         0.0800
     32 H7         -1.7725    6.1426   -3.8275 H         1 <0>         0.4180
     33 H8         -1.2654    8.7647   -4.1880 H         1 <0>         0.0814
     34 H9         -3.0072    8.5369   -3.9009 H         1 <0>         0.0821
     35 H10        -1.6052   11.1835   -4.3303 H         1 <0>         0.0562
     36 H11        -3.3470   10.9557   -4.0432 H         1 <0>         0.0566
     37 H12         0.5648    3.6158   -4.0982 H         1 <0>         0.4013
     38 H13        -1.4344    3.0663   -6.1684 H         1 <0>         0.0916
     39 H14         0.2740    0.9416   -4.8780 H         1 <0>         0.0699
     40 H15        -1.2906    0.7773   -5.7353 H         1 <0>         0.0705
     41 H16        -0.2429    0.9199   -7.9026 H         1 <0>         0.0691
     42 H17         0.9671   -0.0240   -6.9723 H         1 <0>         0.0680
     43 H18         1.7525    2.2382   -8.2112 H         1 <0>         0.0681
     44 H19         2.3174    1.9226   -6.5405 H         1 <0>         0.0667
     45 H20         0.2269    3.8632   -7.5206 H         1 <0>         0.0757
     46 H21         1.3147    3.9893   -6.1092 H         1 <0>         0.0718
     47 H22        -0.1652    1.3592   -2.1246 H         1 <0>         0.0692
     48 H23        -1.7248    1.1095   -1.3013 H         1 <0>         0.0761
     49 O5         -2.6537   13.5347   -3.3085 O.co2     1 <0>        -0.7625
@<TRIPOS>BOND
     1    1   25 1
     2    1    2 1
     3    1   26 1
     4    1   27 1
     5    2    3 1
     6    2   28 1
     7    2   29 1
     8    3    4 1
     9    3   30 1
    10    3   31 1
    11    4    8 1
    12    4    5 2
    13    5    6 1
    14    5   25 1
    15    6    7 2
    16    6   17 1
    17    7    8 1
    18    7    9 1
    19    9   10 am
    20    9   32 1
    21   10   11 2
    22   10   12 1
    23   12   13 1
    24   12   33 1
    25   12   34 1
    26   13   14 1
    27   14   15 1
    28   14   35 1
    29   14   36 1
    30   15   16 2
    31   15   49 1
    32   17   18 2
    33   17   19 am
    34   19   20 1
    35   19   37 1
    36   20   24 1
    37   20   21 1
    38   20   38 1
    39   21   22 1
    40   21   39 1
    41   21   40 1
    42   22   23 1
    43   22   41 1
    44   22   42 1
    45   23   24 1
    46   23   43 1
    47   23   44 1
    48   24   45 1
    49   24   46 1
    50   25   47 1
    51   25   48 1
@<TRIPOS>MOLECULE
ZINC17090760
   56    60     0     0     0
SMALL
USER_CHARGES

@<TRIPOS>ATOM
      1 C1          0.2553    1.9417    0.4441 C.3       1 <0>        -0.1138
      2 C2          1.7300    2.2465    0.1659 C.3       1 <0>        -0.1145
      3 C3          2.5595    1.8553    1.3978 C.3       1 <0>        -0.0249
      4 C4          2.1462    0.4810    1.8258 C.2       1 <0>        -0.2588
      5 C5          1.0377   -0.1888    1.4433 C.2       1 <0>        -0.0529
      6 C6          0.9107   -1.5115    2.0298 C.2       1 <0>        -0.2682
      7 C7          1.9153   -1.9214    2.8922 C.2       1 <0>         0.0967
      8 S1          2.9793   -0.6228    2.9286 S.3       1 <0>         0.2848
      9 N1          2.0181   -3.1271    3.5694 N.am      1 <0>        -0.6090
     10 C8          3.0733   -3.3596    4.3750 C.2       1 <0>         0.5442
     11 O1          3.9328   -2.5144    4.5076 O.2       1 <0>        -0.4989
     12 C9          3.1850   -4.6699    5.1110 C.3       1 <0>        -0.0749
     13 H1          2.2831   -4.8334    5.7008 H         1 <0>         0.0813
     14 C10         3.3484   -5.8089    4.1026 C.3       1 <0>        -0.1532
     15 H2          2.5241   -6.5134    4.2135 H         1 <0>         0.0655
     16 C11         4.6734   -6.5301    4.3580 C.3       1 <0>        -0.0622
     17 C12         4.6779   -7.1010    5.7775 C.3       1 <0>        -0.1136
     18 C13         4.5146   -5.9620    6.7858 C.3       1 <0>        -0.1084
     19 C14         4.4011   -4.6317    6.0386 C.3       1 <0>        -0.0611
     20 C15         5.6671   -4.4022    5.2107 C.3       1 <0>        -0.1143
     21 C16         5.8305   -5.5412    4.2023 C.3       1 <0>        -0.1231
     22 C17         3.3439   -5.2466    2.7045 C.2       1 <0>         0.4882
     23 O2          4.1930   -4.4382    2.3698 O.co2     1 <0>        -0.6656
     24 O3          2.4912   -5.6000    1.9080 O.co2     1 <0>        -0.6847
     25 C18        -0.2326   -2.3766    1.7228 C.2       1 <0>         0.5897
     26 O4         -0.1775   -3.1471    0.7823 O.2       1 <0>        -0.5116
     27 N2         -1.3446   -2.3186    2.4822 N.am      1 <0>        -0.7043
     28 C19        -2.4870   -3.1830    2.1754 C.3       1 <0>         0.0847
     29 C20        -3.8812   -2.5546    2.2228 C.3       1 <0>        -0.1956
     30 C21        -3.4417   -3.5250    3.3210 C.3       1 <0>        -0.1919
     31 C22         0.0342    0.4278    0.4799 C.3       1 <0>        -0.0571
     32 H3         -0.0285    2.3719    1.4046 H         1 <0>         0.0636
     33 H4         -0.3595    2.3788   -0.3428 H         1 <0>         0.0632
     34 H5          2.0651    1.6717   -0.6974 H         1 <0>         0.0668
     35 H6          1.8515    3.3114   -0.0328 H         1 <0>         0.0670
     36 H7          3.6193    1.8576    1.1430 H         1 <0>         0.0748
     37 H8          2.3737    2.5630    2.2057 H         1 <0>         0.0735
     38 H9          1.3306   -3.8031    3.4633 H         1 <0>         0.4178
     39 H10         4.7898   -7.3415    3.6396 H         1 <0>         0.0608
     40 H11         3.8536   -7.8055    5.8884 H         1 <0>         0.0545
     41 H12         5.6219   -7.6148    5.9594 H         1 <0>         0.0559
     42 H13         3.6126   -6.1255    7.3757 H         1 <0>         0.0549
     43 H14         5.3809   -5.9348    7.4467 H         1 <0>         0.0605
     44 H15         4.2847   -3.8202    6.7570 H         1 <0>         0.0666
     45 H16         5.5863   -3.4545    4.6784 H         1 <0>         0.0967
     46 H17         6.5335   -4.3750    5.8716 H         1 <0>         0.0419
     47 H18         6.7744   -6.0550    4.3843 H         1 <0>         0.0363
     48 H19         5.8272   -5.1345    3.1911 H         1 <0>         0.1034
     49 H20        -1.3886   -1.7045    3.2317 H         1 <0>         0.3984
     50 H21        -2.3064   -3.9518    1.4242 H         1 <0>         0.1376
     51 H22        -3.9484   -1.4980    2.4822 H         1 <0>         0.0944
     52 H23        -4.6181   -2.9099    1.5026 H         1 <0>         0.0995
     53 H24        -3.8896   -4.5188    3.3232 H         1 <0>         0.1018
     54 H25        -3.2199   -3.1069    4.3029 H         1 <0>         0.0952
     55 H26        -0.9788    0.2142    0.8209 H         1 <0>         0.0677
     56 H27         0.1820    0.0130   -0.5172 H         1 <0>         0.0749
@<TRIPOS>BOND
     1    1   31 1
     2    1    2 1
     3    1   32 1
     4    1   33 1
     5    2    3 1
     6    2   34 1
     7    2   35 1
     8    3    4 1
     9    3   36 1
    10    3   37 1
    11    4    8 1
    12    4    5 2
    13    5    6 1
    14    5   31 1
    15    6    7 2
    16    6   25 1
    17    7    8 1
    18    7    9 1
    19    9   10 am
    20    9   38 1
    21   10   11 2
    22   10   12 1
    23   12   13 1
    24   12   19 1
    25   12   14 1
    26   14   15 1
    27   14   16 1
    28   14   22 1
    29   16   21 1
    30   16   17 1
    31   16   39 1
    32   17   18 1
    33   17   40 1
    34   17   41 1
    35   18   19 1
    36   18   42 1
    37   18   43 1
    38   19   20 1
    39   19   44 1
    40   20   21 1
    41   20   45 1
    42   20   46 1
    43   21   47 1
    44   21   48 1
    45   22   23 2
    46   22   24 1
    47   25   26 2
    48   25   27 am
    49   27   28 1
    50   27   49 1
    51   28   30 1
    52   28   29 1
    53   28   50 1
    54   29   30 1
    55   29   51 1
    56   29   52 1
    57   30   53 1
    58   30   54 1
    59   31   55 1
    60   31   56 1
@<TRIPOS>MOLECULE
ZINC49197796
   43    45     0     0     0
SMALL
USER_CHARGES

@<TRIPOS>ATOM
      1 C1         -0.0163    1.3487    0.0095 C.2       1 <0>        -0.2279
      2 C2          1.3163    1.7820   -0.0009 C.2       1 <0>        -0.1576
      3 C3          2.0993    0.6438   -0.0145 C.2       1 <0>        -0.0240
      4 O1          1.2734   -0.4242   -0.0124 O.3       1 <0>        -0.1504
      5 C4          0.0021   -0.0041    0.0020 C.2       1 <0>        -0.0382
      6 C5          3.5125    0.6045   -0.0289 C.2       1 <0>         0.4052
      7 O2          4.2197    1.7544   -0.0303 O.3       1 <0>        -0.5766
      8 C6          4.1790   -0.6280   -0.0418 C.2       1 <0>        -0.4225
      9 C7          3.4288   -1.8477   -0.0404 C.1       1 <0>         0.3053
     10 N1          2.8336   -2.8153   -0.0393 N.1       1 <0>        -0.5265
     11 C8          5.5884   -0.6671   -0.0562 C.2       1 <0>         0.4112
     12 O3          6.2249    0.3678   -0.0574 O.2       1 <0>        -0.4945
     13 C9          6.3052   -1.9927   -0.0701 C.3       1 <0>        -0.1614
     14 C10         7.8166   -1.7550   -0.0841 C.3       1 <0>        -0.1017
     15 C11         8.5444   -3.1008   -0.0982 C.3       1 <0>        -0.1194
     16 C12        10.0557   -2.8631   -0.1122 C.3       1 <0>        -0.1028
     17 C13        10.7835   -4.2088   -0.1262 C.3       1 <0>        -0.0211
     18 H1         10.4558   -4.8396    0.7001 H         1 <0>         0.1137
     19 C14        12.2789   -4.0197   -0.1074 C.3       1 <0>         0.0997
     20 H2         12.5036   -3.1755   -0.7592 H         1 <0>         0.0773
     21 C15        12.9452   -5.2604   -0.7784 C.3       1 <0>         0.0974
     22 H3         12.6749   -6.1651   -0.2339 H         1 <0>         0.0940
     23 C16        12.3717   -5.3132   -2.1926 C.3       1 <0>        -0.0632
     24 S1         10.5674   -5.0702   -1.7530 S.3       1 <0>        -0.2566
     25 N2         14.3336   -4.9378   -0.5384 N.am      1 <0>        -0.7356
     26 C17        14.3519   -4.2718    0.6550 C.2       1 <0>         0.7111
     27 O4         15.3646   -4.0638    1.2950 O.2       1 <0>        -0.5603
     28 N3         13.1096   -3.8834    1.0523 N.am      1 <0>        -0.7235
     29 H4         -0.8943    1.9775    0.0252 H         1 <0>         0.1461
     30 H5          1.6631    2.8048    0.0012 H         1 <0>         0.1538
     31 H6         -0.8689   -0.6426    0.0072 H         1 <0>         0.1966
     32 H7          6.0351   -2.5612    0.8198 H         1 <0>         0.0748
     33 H8          6.0172   -2.5522   -0.9600 H         1 <0>         0.0758
     34 H9          8.0868   -1.1865   -0.9740 H         1 <0>         0.0663
     35 H10         8.1047   -1.1954    0.8059 H         1 <0>         0.0647
     36 H11         8.2742   -3.6692    0.7917 H         1 <0>         0.0609
     37 H12         8.2563   -3.6603   -0.9881 H         1 <0>         0.0667
     38 H13        10.3259   -2.2946   -1.0021 H         1 <0>         0.0789
     39 H14        10.3438   -2.3035    0.7778 H         1 <0>         0.0784
     40 H15        12.7630   -4.5073   -2.8135 H         1 <0>         0.1054
     41 H16        12.5361   -6.2865   -2.6550 H         1 <0>         0.1167
     42 H17        15.0922   -5.1495   -1.1046 H         1 <0>         0.4311
     43 H18        12.8473   -3.5738    1.9334 H         1 <0>         0.4329
@<TRIPOS>BOND
     1    1    5 2
     2    1    2 1
     3    1   29 1
     4    2    3 2
     5    2   30 1
     6    3    4 1
     7    3    6 1
     8    4    5 1
     9    5   31 1
    10    6    7 1
    11    6    8 2
    12    8    9 1
    13    8   11 1
    14    9   10 3
    15   11   12 2
    16   11   13 1
    17   13   14 1
    18   13   32 1
    19   13   33 1
    20   14   15 1
    21   14   34 1
    22   14   35 1
    23   15   16 1
    24   15   36 1
    25   15   37 1
    26   16   17 1
    27   16   38 1
    28   16   39 1
    29   17   18 1
    30   17   24 1
    31   17   19 1
    32   19   20 1
    33   19   28 1
    34   19   21 1
    35   21   22 1
    36   21   23 1
    37   21   25 1
    38   23   24 1
    39   23   40 1
    40   23   41 1
    41   25   26 am
    42   25   42 1
    43   26   27 2
    44   26   28 am
    45   28   43 1
@<TRIPOS>MOLECULE
ZINC60443207
   35    36     0     0     0
SMALL
USER_CHARGES

@<TRIPOS>ATOM
      1 C1         -0.0167    1.3775    0.0096 C.ar      1 <0>        -0.0338
      2 C2          1.1687    2.0872    0.0021 C.ar      1 <0>        -0.2804
      3 C3          2.3831    1.4125   -0.0135 C.ar      1 <0>         0.3056
      4 C4          2.4036    0.0243   -0.0211 C.ar      1 <0>        -0.1925
      5 C5          1.2124   -0.6837   -0.0131 C.ar      1 <0>         0.1346
      6 C6          0.0021   -0.0041    0.0020 C.ar      1 <0>        -0.2858
      7 O1          1.2291   -2.0425   -0.0210 O.3       1 <0>        -0.3252
      8 C7         -0.0361   -2.7069   -0.0119 C.3       1 <0>         0.4128
      9 F1         -0.7440   -2.3463    1.1396 F         1 <0>        -0.2027
     10 F2         -0.7671   -2.3333   -1.1448 F         1 <0>        -0.2028
     11 N1          3.5815    2.1297   -0.0220 N.2       1 <0>        -1.0788
     12 S1          3.5556    3.7854   -0.0135 S.o2      1 <0>         2.5963
     13 O2          2.9860    4.1891   -1.2512 O.2       1 <0>        -1.0163
     14 O3          3.0111    4.1766    1.2394 O.2       1 <0>        -1.0104
     15 C8          5.2304    4.3327   -0.0277 C.ar      1 <0>        -0.6043
     16 C9          5.7180    5.0386   -1.1114 C.ar      1 <0>        -0.0231
     17 C10         7.0317    5.4681   -1.1228 C.ar      1 <0>        -0.0605
     18 C11         7.8597    5.1921   -0.0504 C.ar      1 <0>        -0.6208
     19 C12         7.3744    4.4870    1.0343 C.ar      1 <0>        -0.0783
     20 C13         6.0569    4.0608    1.0491 C.ar      1 <0>         0.1843
     21 F3          5.5800    3.3753    2.1112 F         1 <0>        -0.1060
     22 S2          9.5345    5.7394   -0.0672 S.o2      1 <0>         2.7067
     23 O4         10.2505    4.8829    0.8121 O.2       1 <0>        -0.9570
     24 O5          9.8945    5.9032   -1.4320 O.2       1 <0>        -0.9540
     25 N2          9.5634    7.2484    0.6143 N.pl3     1 <0>        -1.2464
     26 H1         -0.9597    1.9036    0.0259 H         1 <0>         0.1102
     27 H2          1.1513    3.1670    0.0080 H         1 <0>         0.1004
     28 H3          3.3462   -0.5028   -0.0336 H         1 <0>         0.1244
     29 H4         -0.9262   -0.5560    0.0082 H         1 <0>         0.1158
     30 H5          0.1200   -3.7856   -0.0196 H         1 <0>         0.1716
     31 H6          5.0722    5.2544   -1.9498 H         1 <0>         0.1607
     32 H7          7.4119    6.0193   -1.9702 H         1 <0>         0.1549
     33 H8          8.0214    4.2713    1.8717 H         1 <0>         0.1599
     34 H9         10.3518    7.5496    1.0924 H         1 <0>         0.4220
     35 H10         8.7919    7.8310    0.5353 H         1 <0>         0.4190
@<TRIPOS>BOND
     1    1    6 ar
     2    1    2 ar
     3    1   26 1
     4    2    3 ar
     5    2   27 1
     6    3    4 ar
     7    3   11 1
     8    4    5 ar
     9    4   28 1
    10    5    6 ar
    11    5    7 1
    12    6   29 1
    13    7    8 1
    14    8    9 1
    15    8   10 1
    16    8   30 1
    17   11   12 1
    18   12   13 2
    19   12   14 2
    20   12   15 1
    21   15   20 ar
    22   15   16 ar
    23   16   17 ar
    24   16   31 1
    25   17   18 ar
    26   17   32 1
    27   18   19 ar
    28   18   22 1
    29   19   20 ar
    30   19   33 1
    31   20   21 1
    32   22   23 2
    33   22   24 2
    34   22   25 1
    35   25   34 1
    36   25   35 1
@<TRIPOS>MOLECULE
ZINC65499394
   47    49     0     0     0
SMALL
USER_CHARGES

@<TRIPOS>ATOM
      1 C1          0.0176    1.4248    0.4191 C.3       1 <0>        -0.1621
      2 C2          0.0314   -0.0879    0.1900 C.3       1 <0>         0.1360
      3 C3          0.8282   -0.7656    1.3065 C.3       1 <0>        -0.1642
      4 N1         -1.3431   -0.5949    0.1940 N.am      1 <0>        -0.7255
      5 C4         -1.6429   -1.7344   -0.4602 C.2       1 <0>         0.5647
      6 O1         -0.7727   -2.3417   -1.0537 O.2       1 <0>        -0.5413
      7 C5         -3.0276   -2.2452   -0.4562 C.ar      1 <0>        -0.1627
      8 C6         -4.0302   -1.5453    0.2207 C.ar      1 <0>        -0.0625
      9 C7         -5.3208   -2.0244    0.2226 C.ar      1 <0>        -0.1315
     10 C8         -5.6275   -3.2043   -0.4485 C.ar      1 <0>         0.1854
     11 C9         -4.6315   -3.9035   -1.1234 C.ar      1 <0>        -0.1572
     12 C10        -3.3402   -3.4267   -1.1340 C.ar      1 <0>        -0.0357
     13 N2         -6.9347   -3.6868   -0.4443 N.am      1 <0>        -0.6712
     14 C11        -7.9711   -2.8251   -0.4349 C.2       1 <0>         0.5652
     15 O2         -7.7688   -1.6304   -0.5272 O.2       1 <0>        -0.5067
     16 C12        -9.3562   -3.3343   -0.3121 C.ar      1 <0>        -0.0869
     17 C13        -9.5822   -4.7152   -0.2001 C.ar      1 <0>        -0.1687
     18 C14       -10.8464   -5.2076   -0.0861 C.ar      1 <0>        -0.0099
     19 C15       -11.9401   -4.3303   -0.0794 C.ar      1 <0>        -0.2192
     20 C16       -11.7265   -2.9313   -0.1915 C.ar      1 <0>         0.2127
     21 C17       -10.4168   -2.4429   -0.3032 C.ar      1 <0>        -0.0661
     22 N3        -12.7830   -2.1061   -0.1830 N.2       1 <0>        -0.5511
     23 C18       -14.0134   -2.5830   -0.0717 C.2       1 <0>         0.5024
     24 N4        -14.2686   -3.8974    0.0370 N.pl3     1 <0>        -0.4940
     25 C19       -13.2651   -4.8013    0.0374 C.2       1 <0>         0.5004
     26 O3        -13.5221   -6.1165    0.1458 O.3       1 <0>        -0.6079
     27 C20       -15.6546   -4.3567    0.1568 C.3       1 <0>         0.0522
     28 S1        -15.3264   -1.4844   -0.0657 S.2       1 <0>        -0.7027
     29 H1          1.0403    1.8020    0.4161 H         1 <0>         0.0729
     30 H2         -0.5500    1.9077   -0.3763 H         1 <0>         0.0628
     31 H3         -0.4471    1.6424    1.3807 H         1 <0>         0.0615
     32 H4          0.4961   -0.3055   -0.7717 H         1 <0>         0.0886
     33 H5          1.8508   -0.3884    1.3035 H         1 <0>         0.0652
     34 H6          0.3635   -0.5480    2.2681 H         1 <0>         0.0568
     35 H7          0.8380   -1.8433    1.1432 H         1 <0>         0.0609
     36 H8         -2.0374   -0.1104    0.6674 H         1 <0>         0.3998
     37 H9         -3.7927   -0.6298    0.7420 H         1 <0>         0.1277
     38 H10        -6.0959   -1.4843    0.7458 H         1 <0>         0.1434
     39 H11        -4.8728   -4.8191   -1.6430 H         1 <0>         0.1348
     40 H12        -2.5686   -3.9673   -1.6620 H         1 <0>         0.1394
     41 H13        -7.0989   -4.6428   -0.4481 H         1 <0>         0.4155
     42 H14        -8.7431   -5.3952   -0.2048 H         1 <0>         0.1227
     43 H15       -11.0065   -6.2723   -0.0014 H         1 <0>         0.1370
     44 H16       -10.2366   -1.3812   -0.3852 H         1 <0>         0.1481
     45 H17       -16.3250   -3.4974    0.1385 H         1 <0>         0.1291
     46 H18       -15.8909   -5.0196   -0.6755 H         1 <0>         0.0708
     47 H19       -15.7791   -4.8947    1.0965 H         1 <0>         0.0708
@<TRIPOS>BOND
     1    1    2 1
     2    1   29 1
     3    1   30 1
     4    1   31 1
     5    2    3 1
     6    2    4 1
     7    2   32 1
     8    3   33 1
     9    3   34 1
    10    3   35 1
    11    4    5 am
    12    4   36 1
    13    5    6 2
    14    5    7 1
    15    7   12 ar
    16    7    8 ar
    17    8    9 ar
    18    8   37 1
    19    9   10 ar
    20    9   38 1
    21   10   11 ar
    22   10   13 1
    23   11   12 ar
    24   11   39 1
    25   12   40 1
    26   13   14 am
    27   13   41 1
    28   14   15 2
    29   14   16 1
    30   16   21 ar
    31   16   17 ar
    32   17   18 ar
    33   17   42 1
    34   18   19 ar
    35   18   43 1
    36   19   25 2
    37   19   20 ar
    38   20   21 ar
    39   20   22 2
    40   21   44 1
    41   22   23 1
    42   23   24 1
    43   23   28 2
    44   24   25 1
    45   24   27 1
    46   25   26 1
    47   27   45 1
    48   27   46 1
    49   27   47 1
@<TRIPOS>MOLECULE
ZINC09465494
   51    53     0     0     0
SMALL
USER_CHARGES
N-[4-(2,6-dimethylmorpholin-4-yl)sulfonylphenyl]-3,5-dimethyl-isoxazole-4-sulfonamide
@<TRIPOS>ATOM
      1 C1          4.7568    0.5933    3.9259 C.3       1 <0>        -0.1069
      2 C2          3.6353    0.8546    4.8981 C.2       1 <0>         0.1116
      3 C3          2.3328    1.3076    4.5866 C.2       1 <0>        -0.8058
      4 C4          1.7159    1.3828    5.7901 C.2       1 <0>         0.1259
      5 O1          2.6194    1.0022    6.7042 O.3       1 <0>         0.1047
      6 N1          3.6742    0.7086    6.1910 N.2       1 <0>        -0.3564
      7 C5          0.2959    1.8152    6.0507 C.3       1 <0>        -0.1130
      8 S1          1.6663    1.6867    3.0002 S.o2      1 <0>         2.7271
      9 O2          2.3133    0.8270    2.0719 O.2       1 <0>        -0.9332
     10 O3          0.2537    1.7204    3.1506 O.2       1 <0>        -0.9367
     11 N2          2.1394    3.2289    2.6262 N.pl3     1 <0>        -1.0577
     12 C6          1.7172    4.3001    3.4169 C.ar      1 <0>         0.2004
     13 C7          0.3838    4.4052    3.7921 C.ar      1 <0>        -0.1771
     14 C8         -0.0294    5.4630    4.5780 C.ar      1 <0>         0.0054
     15 C9          0.8805    6.4226    4.9825 C.ar      1 <0>        -0.6887
     16 C10         2.2075    6.3238    4.6064 C.ar      1 <0>         0.0011
     17 C11         2.6285    5.2658    3.8250 C.ar      1 <0>        -0.1475
     18 S2          0.3476    7.7745    5.9790 S.o2      1 <0>         2.6886
     19 O4         -0.8304    7.3461    6.6484 O.2       1 <0>        -0.9476
     20 O5          1.4939    8.2408    6.6775 O.2       1 <0>        -0.9493
     21 N3         -0.1077    8.9907    4.9514 N.pl3     1 <0>        -0.9981
     22 C12         0.8599   10.0037    4.5010 C.3       1 <0>         0.0910
     23 C13         0.7776   10.0972    2.9689 C.3       1 <0>         0.0700
     24 H1          1.1446    9.1722    2.5242 H         1 <0>         0.0683
     25 O6         -0.5836   10.3048    2.5843 O.3       1 <0>        -0.3655
     26 C14        -1.4622    9.2347    2.9404 C.3       1 <0>         0.0754
     27 H2         -2.4660    9.4496    2.5742 H         1 <0>         0.1173
     28 C15        -1.4932    9.0938    4.4666 C.3       1 <0>         0.0908
     29 C16        -0.9589    7.9313    2.3170 C.3       1 <0>        -0.1920
     30 C17         1.6305   11.2711    2.4837 C.3       1 <0>        -0.1475
     31 H3          5.3415    1.5035    3.7926 H         1 <0>         0.0907
     32 H4          5.3985   -0.1970    4.3154 H         1 <0>         0.0912
     33 H5          4.3415    0.2844    2.9666 H         1 <0>         0.1055
     34 H6         -0.3612    0.9464    6.0129 H         1 <0>         0.1162
     35 H7         -0.0097    2.5352    5.2916 H         1 <0>         0.1105
     36 H8          0.2317    2.2767    7.0360 H         1 <0>         0.1028
     37 H9          2.7097    3.3884    1.8579 H         1 <0>         0.4343
     38 H10        -0.3281    3.6585    3.4728 H         1 <0>         0.1691
     39 H11        -1.0651    5.5432    4.8735 H         1 <0>         0.1503
     40 H12         2.9155    7.0752    4.9238 H         1 <0>         0.1464
     41 H13         3.6650    5.1894    3.5313 H         1 <0>         0.1414
     42 H14         0.6142   10.9688    4.9442 H         1 <0>         0.0873
     43 H15         1.8661    9.7082    4.7984 H         1 <0>         0.0986
     44 H16        -2.0460    8.1955    4.7412 H         1 <0>         0.1008
     45 H17        -1.9718    9.9688    4.9064 H         1 <0>         0.0872
     46 H18        -1.6267    7.1151    2.5927 H         1 <0>         0.0705
     47 H19        -0.9371    8.0322    1.2319 H         1 <0>         0.0689
     48 H20         0.0457    7.7179    2.6824 H         1 <0>         0.0625
     49 H21         1.2641   12.1954    2.9302 H         1 <0>         0.0681
     50 H22         2.6681   11.1121    2.7773 H         1 <0>         0.0748
     51 H23         1.5669   11.3420    1.3979 H         1 <0>         0.0686
@<TRIPOS>BOND
     1    1    2 1
     2    1   31 1
     3    1   32 1
     4    1   33 1
     5    2    6 2
     6    2    3 1
     7    3    4 2
     8    3    8 1
     9    4    5 1
    10    4    7 1
    11    5    6 1
    12    7   34 1
    13    7   35 1
    14    7   36 1
    15    8    9 2
    16    8   10 2
    17    8   11 1
    18   11   12 1
    19   11   37 1
    20   12   17 ar
    21   12   13 ar
    22   13   14 ar
    23   13   38 1
    24   14   15 ar
    25   14   39 1
    26   15   16 ar
    27   15   18 1
    28   16   17 ar
    29   16   40 1
    30   17   41 1
    31   18   19 2
    32   18   20 2
    33   18   21 1
    34   21   28 1
    35   21   22 1
    36   22   23 1
    37   22   42 1
    38   22   43 1
    39   23   24 1
    40   23   25 1
    41   23   30 1
    42   25   26 1
    43   26   27 1
    44   26   28 1
    45   26   29 1
    46   28   44 1
    47   28   45 1
    48   29   46 1
    49   29   47 1
    50   29   48 1
    51   30   49 1
    52   30   50 1
    53   30   51 1
@<TRIPOS>MOLECULE
ZINC06444715
   51    54     0     0     0
SMALL
USER_CHARGES
3-methyl-7-[(2R)-2-methyl-3-[(5-methyl-1,3,4-thiadiazol-2-yl)sulfanyl]propyl]-8-pyrrolidin-1-yl-purine-2,6-dione
@<TRIPOS>ATOM
      1 C1         -8.6979    2.4895   -6.9851 C.3       1 <0>        -0.0623
      2 C2         -7.3592    2.4784   -6.2931 C.2       1 <0>         0.0772
      3 N1         -7.0709    2.4486   -5.0079 N.2       1 <0>        -0.2755
      4 N2         -5.8825    2.4433   -4.5854 N.2       1 <0>        -0.2830
      5 C3         -4.8460    2.4677   -5.4138 C.2       1 <0>         0.0233
      6 S1         -5.7073    2.5100   -6.9831 S.3       1 <0>         0.0097
      7 S2         -3.1182    2.4666   -5.0683 S.3       1 <0>         0.0770
      8 C4         -3.1594    2.4219   -3.2593 C.3       1 <0>        -0.1131
      9 C5         -1.7289    2.4147   -2.7166 C.3       1 <0>        -0.0870
     10 H1         -1.1837    3.2690   -3.1180 H         1 <0>         0.0936
     11 C6         -1.0302    1.1203   -3.1377 C.3       1 <0>        -0.1517
     12 C7         -1.7623    2.5027   -1.1895 C.3       1 <0>         0.1188
     13 N3         -0.3964    2.6419   -0.6784 N.pl3     1 <0>        -0.3974
     14 C8          0.4610    1.6122   -0.3146 C.2       1 <0>        -0.1511
     15 C9          0.3631    0.2096   -0.2976 C.2       1 <0>         0.5966
     16 O1         -0.6628   -0.3404   -0.6584 O.2       1 <0>        -0.5080
     17 N4          1.4169   -0.5208    0.1220 N.am      1 <0>        -0.6552
     18 H2          1.3505   -1.5185    0.1354 H         1 <0>         0.4471
     19 C10         2.5548    0.0723    0.5224 C.2       1 <0>         0.7117
     20 O2          3.4844   -0.6180    0.8939 O.2       1 <0>        -0.5345
     21 N5          2.6906    1.4118    0.5219 N.am      1 <0>        -0.5103
     22 C11         1.6428    2.2154    0.1018 C.2       1 <0>         0.3351
     23 N6          1.4817    3.5350   -0.0088 N.2       1 <0>        -0.5155
     24 C12         0.2762    3.8042   -0.4675 C.2       1 <0>         0.4598
     25 N7         -0.2222    5.0651   -0.7021 N.pl3     1 <0>        -0.4485
     26 C13        -0.9526    5.5781    0.4851 C.3       1 <0>         0.0402
     27 C14        -0.9657    7.1107    0.2584 C.3       1 <0>        -0.1212
     28 C15         0.4248    7.3803   -0.3613 C.3       1 <0>        -0.1306
     29 C16         0.8713    6.0295   -0.9505 C.3       1 <0>         0.0433
     30 C17         3.9470    2.0202    0.9663 C.3       1 <0>         0.0858
     31 H3         -9.0252    3.5196   -7.1267 H         1 <0>         0.0987
     32 H4         -8.6097    1.9998   -7.9549 H         1 <0>         0.0929
     33 H5         -9.4271    1.9573   -6.3743 H         1 <0>         0.1028
     34 H6         -3.6775    1.5213   -2.9299 H         1 <0>         0.1065
     35 H7         -3.6852    3.3007   -2.8860 H         1 <0>         0.1055
     36 H8         -0.0518    1.0638   -2.6607 H         1 <0>         0.0564
     37 H9         -1.6335    0.2656   -2.8317 H         1 <0>         0.0753
     38 H10        -0.9076    1.1093   -4.2208 H         1 <0>         0.0628
     39 H11        -2.2117    1.5966   -0.7831 H         1 <0>         0.1112
     40 H12        -2.3529    3.3679   -0.8883 H         1 <0>         0.1051
     41 H13        -1.9687    5.1844    0.5114 H         1 <0>         0.0902
     42 H14        -0.4188    5.3294    1.4023 H         1 <0>         0.0634
     43 H15        -1.0752    7.6398    1.2050 H         1 <0>         0.0825
     44 H16        -1.7581    7.3913   -0.4354 H         1 <0>         0.0815
     45 H17         1.1246    7.7076    0.4076 H         1 <0>         0.0757
     46 H18         0.3490    8.1301   -1.1489 H         1 <0>         0.0800
     47 H19         1.7829    5.6923   -0.4571 H         1 <0>         0.0849
     48 H20         1.0438    6.1273   -2.0223 H         1 <0>         0.0887
     49 H21         4.6472    1.2370    1.2568 H         1 <0>         0.1037
     50 H22         4.3745    2.6064    0.1528 H         1 <0>         0.0792
     51 H23         3.7540    2.6699    1.8200 H         1 <0>         0.0786
@<TRIPOS>BOND
     1    1    2 1
     2    1   31 1
     3    1   32 1
     4    1   33 1
     5    2    6 1
     6    2    3 2
     7    3    4 1
     8    4    5 2
     9    5    6 1
    10    5    7 1
    11    7    8 1
    12    8    9 1
    13    8   34 1
    14    8   35 1
    15    9   10 1
    16    9   11 1
    17    9   12 1
    18   11   36 1
    19   11   37 1
    20   11   38 1
    21   12   13 1
    22   12   39 1
    23   12   40 1
    24   13   24 1
    25   13   14 1
    26   14   22 2
    27   14   15 1
    28   15   16 2
    29   15   17 am
    30   17   18 1
    31   17   19 am
    32   19   20 2
    33   19   21 am
    34   21   22 1
    35   21   30 1
    36   22   23 1
    37   23   24 2
    38   24   25 1
    39   25   29 1
    40   25   26 1
    41   26   27 1
    42   26   41 1
    43   26   42 1
    44   27   28 1
    45   27   43 1
    46   27   44 1
    47   28   29 1
    48   28   45 1
    49   28   46 1
    50   29   47 1
    51   29   48 1
    52   30   49 1
    53   30   50 1
    54   30   51 1
@<TRIPOS>MOLECULE
ZINC31844306
   59    62     0     0     0
SMALL
USER_CHARGES
ethyl 4-[2-[(4R)-4-indan-5-yl-4-methyl-2,5-dioxo-imidazolidin-1-yl]acetyl]piperazine-1-carboxylate
@<TRIPOS>ATOM
      1 C1         -2.9742    0.9042   -5.3284 C.3       1 <0>        -0.1561
      2 C2         -2.2529    0.1964   -4.1796 C.3       1 <0>         0.0801
      3 O1         -1.8174    1.1788   -3.2031 O.3       1 <0>        -0.3689
      4 C3         -1.1615    0.7167   -2.1219 C.2       1 <0>         0.6534
      5 O2         -0.9585   -0.4748   -1.9977 O.2       1 <0>        -0.5691
      6 N1         -0.7300    1.5759   -1.1774 N.am      1 <0>        -0.5967
      7 C4         -0.0127    1.0858    0.0080 C.3       1 <0>         0.1091
      8 C5         -0.7375    1.5839    1.2646 C.3       1 <0>         0.0877
      9 N2         -0.9792    3.0276    1.1251 N.am      1 <0>        -0.6110
     10 C6         -1.6966    3.5176   -0.0602 C.3       1 <0>         0.0972
     11 C7         -0.9680    3.0196   -1.3146 C.3       1 <0>         0.0979
     12 C8         -0.5473    3.8868    2.0694 C.2       1 <0>         0.5063
     13 O3         -0.7494    5.0762    1.9452 O.2       1 <0>        -0.5191
     14 C9          0.1869    3.3696    3.2796 C.3       1 <0>         0.0963
     15 N3          0.5475    4.4924    4.1488 N.am      1 <0>        -0.5609
     16 C10         1.7047    5.1774    4.0599 C.2       1 <0>         0.5414
     17 O4          2.6094    4.9879    3.2754 O.2       1 <0>        -0.4586
     18 C11         1.6391    6.2352    5.1436 C.3       1 <0>         0.1607
     19 N4          0.3330    5.9965    5.7818 N.am      1 <0>        -0.7260
     20 C12        -0.2289    4.9609    5.1325 C.2       1 <0>         0.7218
     21 O5         -1.3199    4.5021    5.4088 O.2       1 <0>        -0.5390
     22 C13         2.7741    6.0394    6.1507 C.3       1 <0>        -0.1456
     23 C14         1.6934    7.6186    4.5483 C.ar      1 <0>        -0.0932
     24 C15         2.4534    7.8563    3.4182 C.ar      1 <0>        -0.1036
     25 C16         2.4972    9.1236    2.8710 C.ar      1 <0>        -0.1016
     26 C17         1.7906   10.1606    3.4572 C.ar      1 <0>        -0.0882
     27 C18         1.0352    9.9242    4.5903 C.ar      1 <0>        -0.0978
     28 C19         0.9884    8.6515    5.1345 C.ar      1 <0>        -0.0838
     29 C20         0.3648   11.2064    5.0350 C.3       1 <0>        -0.0866
     30 C21         0.4375   12.1453    3.8122 C.3       1 <0>        -0.1173
     31 C22         1.6794   11.6177    3.0628 C.3       1 <0>        -0.0819
     32 H1         -3.3041    0.1599   -6.0681 H         1 <0>         0.0849
     33 H2         -2.2882    1.6183   -5.8075 H         1 <0>         0.0679
     34 H3         -3.8488    1.4433   -4.9354 H         1 <0>         0.0679
     35 H4         -2.9389   -0.5177   -3.7005 H         1 <0>         0.0725
     36 H5         -1.3783   -0.3427   -4.5725 H         1 <0>         0.0725
     37 H6          0.0034   -0.0140   -0.0019 H         1 <0>         0.1148
     38 H7          1.0188    1.4677   -0.0036 H         1 <0>         0.0818
     39 H8         -1.6947    1.0524    1.3707 H         1 <0>         0.0861
     40 H9         -0.1119    1.3925    2.1489 H         1 <0>         0.1024
     41 H10        -2.7276    3.1342   -0.0493 H         1 <0>         0.0782
     42 H11        -1.7142    4.6174   -0.0495 H         1 <0>         0.1099
     43 H12        -0.0055    3.5415   -1.4202 H         1 <0>         0.0792
     44 H13        -1.5860    3.2064   -2.2052 H         1 <0>         0.1087
     45 H14        -0.4608    2.6723    3.8311 H         1 <0>         0.1321
     46 H15         1.0997    2.8463    2.9588 H         1 <0>         0.1295
     47 H16         0.0086    6.6266    6.6230 H         1 <0>         0.4689
     48 H17         2.7115    6.8143    6.9289 H         1 <0>         0.0839
     49 H18         3.7414    6.1172    5.6327 H         1 <0>         0.0865
     50 H19         2.6854    5.0459    6.6145 H         1 <0>         0.0730
     51 H20         3.0092    7.0508    2.9613 H         1 <0>         0.1382
     52 H21         3.0876    9.3075    1.9856 H         1 <0>         0.1245
     53 H22         0.3984    8.4660    6.0198 H         1 <0>         0.1187
     54 H23        -0.6760   10.9956    5.3218 H         1 <0>         0.0755
     55 H24         0.9056   11.6229    5.8976 H         1 <0>         0.0814
     56 H25        -0.4877   12.0540    3.2243 H         1 <0>         0.0740
     57 H26         0.5536   13.1844    4.1541 H         1 <0>         0.0789
     58 H27         2.5923   12.1506    3.3672 H         1 <0>         0.0838
     59 H28         1.5566   11.6941    1.9723 H         1 <0>         0.0774
@<TRIPOS>BOND
     1    1    2 1
     2    1   32 1
     3    1   33 1
     4    1   34 1
     5    2    3 1
     6    2   35 1
     7    2   36 1
     8    3    4 1
     9    4    5 2
    10    4    6 am
    11    6   11 1
    12    6    7 1
    13    7    8 1
    14    7   37 1
    15    7   38 1
    16    8    9 1
    17    8   39 1
    18    8   40 1
    19    9   10 1
    20    9   12 am
    21   10   11 1
    22   10   41 1
    23   10   42 1
    24   11   43 1
    25   11   44 1
    26   12   13 2
    27   12   14 1
    28   14   15 1
    29   14   45 1
    30   14   46 1
    31   15   20 am
    32   15   16 am
    33   16   17 2
    34   16   18 1
    35   18   19 1
    36   18   22 1
    37   18   23 1
    38   19   20 am
    39   19   47 1
    40   20   21 2
    41   22   48 1
    42   22   49 1
    43   22   50 1
    44   23   28 ar
    45   23   24 ar
    46   24   25 ar
    47   24   51 1
    48   25   26 ar
    49   25   52 1
    50   26   31 1
    51   26   27 ar
    52   27   28 ar
    53   27   29 1
    54   28   53 1
    55   29   30 1
    56   29   54 1
    57   29   55 1
    58   30   31 1
    59   30   56 1
    60   30   57 1
    61   31   58 1
    62   31   59 1
@<TRIPOS>MOLECULE
ZINC40132542
   60    62     0     0     0
SMALL
USER_CHARGES

@<TRIPOS>ATOM
      1 C1         -1.0124   -0.6318    1.5292 C.3       1 <0>         0.1064
      2 N1         -1.2407   -1.9582    0.9508 N.am      1 <0>        -0.6385
      3 C2         -2.4918   -2.6703    1.2223 C.3       1 <0>         0.0687
      4 C3         -0.2996   -2.5234    0.1688 C.2       1 <0>         0.7120
      5 O1          0.8162   -2.0432    0.1167 O.2       1 <0>        -0.5768
      6 N2         -0.5954   -3.6210   -0.5553 N.am      1 <0>        -0.6288
      7 C4          0.4734   -4.4804   -1.0825 C.3       1 <0>         0.1269
      8 C5          0.2716   -4.6485   -2.5917 C.3       1 <0>        -0.1346
      9 C6         -1.1426   -5.1690   -2.8584 C.3       1 <0>        -0.0993
     10 C7         -2.1668   -4.1547   -2.3442 C.3       1 <0>        -0.1215
     11 H1         -2.0111   -3.1969   -2.8408 H         1 <0>         0.1068
     12 C8         -1.9928   -3.9841   -0.8274 C.3       1 <0>         0.0923
     13 C9         -3.5586   -4.6527   -2.6370 C.2       1 <0>         0.5229
     14 O2         -3.7166   -5.7145   -3.2015 O.2       1 <0>        -0.5157
     15 N3         -4.6280   -3.9182   -2.2716 N.am      1 <0>        -0.6604
     16 C10        -5.9120   -4.3324   -2.6246 C.ar      1 <0>         0.1570
     17 C11        -6.2224   -5.6852   -2.6579 C.ar      1 <0>        -0.0822
     18 C12        -7.4923   -6.0965   -3.0064 C.ar      1 <0>        -0.1384
     19 C13        -8.4712   -5.1608   -3.3269 C.ar      1 <0>         0.1966
     20 C14        -8.1771   -3.8086   -3.2987 C.ar      1 <0>        -0.1265
     21 C15        -6.8951   -3.3833   -2.9412 C.ar      1 <0>        -0.1108
     22 C16        -6.5756   -1.9449   -2.9029 C.2       1 <0>         0.5149
     23 O3         -5.4353   -1.5811   -2.6934 O.2       1 <0>        -0.5096
     24 O4         -7.5481   -1.0332   -3.1003 O.3       1 <0>        -0.3458
     25 C17        -7.1671    0.3432   -3.0494 C.3       1 <0>         0.0338
     26 N4         -9.7562   -5.5881   -3.6791 N.pl3     1 <0>        -0.6325
     27 C18       -10.7711   -4.6309   -4.1471 C.3       1 <0>         0.0856
     28 C19       -11.3700   -5.1619   -5.4546 C.3       1 <0>         0.0452
     29 O5        -11.8095   -6.5080   -5.2584 O.3       1 <0>        -0.3783
     30 C20       -10.7624   -7.4233   -4.9273 C.3       1 <0>         0.0447
     31 C21       -10.1307   -7.0089   -3.5982 C.3       1 <0>         0.0858
     32 H2         -1.8768   -0.3424    2.1268 H         1 <0>         0.0759
     33 H3         -0.1257   -0.6592    2.1624 H         1 <0>         0.0630
     34 H4         -0.8650    0.0932    0.7287 H         1 <0>         0.0589
     35 H5         -3.2552   -2.3462    0.5150 H         1 <0>         0.0595
     36 H6         -2.3299   -3.7430    1.1158 H         1 <0>         0.0811
     37 H7         -2.8213   -2.4517    2.2380 H         1 <0>         0.0727
     38 H8          1.4417   -4.0174   -0.8926 H         1 <0>         0.0955
     39 H9          0.4308   -5.4556   -0.5973 H         1 <0>         0.0674
     40 H10         0.4043   -3.6861   -3.0859 H         1 <0>         0.0700
     41 H11         1.0004   -5.3605   -2.9791 H         1 <0>         0.0830
     42 H12        -1.2805   -5.3129   -3.9301 H         1 <0>         0.0759
     43 H13        -1.2829   -6.1195   -2.3436 H         1 <0>         0.0742
     44 H14        -2.2323   -4.9196   -0.3219 H         1 <0>         0.0754
     45 H15        -2.6522   -3.1935   -0.4692 H         1 <0>         0.1115
     46 H16        -4.5045   -3.1015   -1.7632 H         1 <0>         0.4171
     47 H17        -5.4679   -6.4173   -2.4108 H         1 <0>         0.1510
     48 H18        -7.7279   -7.1502   -3.0310 H         1 <0>         0.1350
     49 H19        -8.9380   -3.0838   -3.5481 H         1 <0>         0.1421
     50 H20        -6.7492    0.5685   -2.0683 H         1 <0>         0.0630
     51 H21        -6.4193    0.5418   -3.8172 H         1 <0>         0.0629
     52 H22        -8.0422    0.9691   -3.2241 H         1 <0>         0.1052
     53 H23       -11.5560   -4.5321   -3.3973 H         1 <0>         0.0739
     54 H24       -10.3069   -3.6606   -4.3234 H         1 <0>         0.0930
     55 H25       -12.2173   -4.5409   -5.7455 H         1 <0>         0.1064
     56 H26       -10.6130   -5.1366   -6.2384 H         1 <0>         0.0565
     57 H27       -11.1726   -8.4293   -4.8389 H         1 <0>         0.1066
     58 H28       -10.0032   -7.4063   -5.7092 H         1 <0>         0.0564
     59 H29        -9.2426   -7.6126   -3.4112 H         1 <0>         0.0934
     60 H30       -10.8500   -7.1536   -2.7922 H         1 <0>         0.0737
@<TRIPOS>BOND
     1    1    2 1
     2    1   32 1
     3    1   33 1
     4    1   34 1
     5    2    3 1
     6    2    4 am
     7    3   35 1
     8    3   36 1
     9    3   37 1
    10    4    5 2
    11    4    6 am
    12    6   12 1
    13    6    7 1
    14    7    8 1
    15    7   38 1
    16    7   39 1
    17    8    9 1
    18    8   40 1
    19    8   41 1
    20    9   10 1
    21    9   42 1
    22    9   43 1
    23   10   11 1
    24   10   12 1
    25   10   13 1
    26   12   44 1
    27   12   45 1
    28   13   14 2
    29   13   15 am
    30   15   16 1
    31   15   46 1
    32   16   21 ar
    33   16   17 ar
    34   17   18 ar
    35   17   47 1
    36   18   19 ar
    37   18   48 1
    38   19   20 ar
    39   19   26 1
    40   20   21 ar
    41   20   49 1
    42   21   22 1
    43   22   23 2
    44   22   24 1
    45   24   25 1
    46   25   50 1
    47   25   51 1
    48   25   52 1
    49   26   31 1
    50   26   27 1
    51   27   28 1
    52   27   53 1
    53   27   54 1
    54   28   29 1
    55   28   55 1
    56   28   56 1
    57   29   30 1
    58   30   31 1
    59   30   57 1
    60   30   58 1
    61   31   59 1
    62   31   60 1
@<TRIPOS>MOLECULE
ZINC64592112
   57    60     0     0     0
SMALL
USER_CHARGES

@<TRIPOS>ATOM
      1 C1         -0.6534    1.2568   -0.2630 C.3       1 <0>         0.0260
      2 O1         -0.0388   -0.0099   -0.0183 O.3       1 <0>        -0.3161
      3 C2          0.5763   -0.6112   -1.0712 C.ar      1 <0>         0.1526
      4 C3          0.5917    0.0098   -2.3117 C.ar      1 <0>        -0.2218
      5 C4          1.2156   -0.5988   -3.3838 C.ar      1 <0>        -0.0529
      6 C5          1.8281   -1.8327   -3.2216 C.ar      1 <0>         0.0806
      7 C6          1.8140   -2.4574   -1.9768 C.ar      1 <0>         0.1400
      8 C7          1.1926   -1.8420   -0.9026 C.ar      1 <0>        -0.2236
      9 O2          2.4133   -3.6671   -1.8152 O.3       1 <0>        -0.3162
     10 C8          2.3596   -4.2486   -0.5109 C.3       1 <0>         0.0269
     11 N1          2.4608   -2.4511   -4.3106 N.am      1 <0>        -0.6556
     12 C9          2.9203   -1.7058   -5.3352 C.2       1 <0>         0.5218
     13 O3          2.8776   -0.4952   -5.2715 O.2       1 <0>        -0.5188
     14 C10         3.4869   -2.3763   -6.5600 C.3       1 <0>        -0.1207
     15 H1          2.7236   -3.0073   -7.0153 H         1 <0>         0.1089
     16 C11         4.6891   -3.2356   -6.1619 C.3       1 <0>        -0.1146
     17 C12         5.2452   -3.9428   -7.3999 C.3       1 <0>        -0.1347
     18 C13         5.7146   -2.8949   -8.4140 C.3       1 <0>         0.0966
     19 N2          4.6030   -1.9754   -8.6926 N.am      1 <0>        -0.6063
     20 C14         3.9356   -1.3107   -7.5650 C.3       1 <0>         0.1340
     21 C15         4.2028   -1.7457   -9.9589 C.2       1 <0>         0.5582
     22 O4          3.2839   -0.9845  -10.1759 O.2       1 <0>        -0.5024
     23 C16         4.8970   -2.4349  -11.1053 C.3       1 <0>        -0.0652
     24 H2          5.1150   -3.4728  -10.8536 H         1 <0>         0.1765
     25 C17         6.1686   -1.6965  -11.4838 C.2       1 <0>        -0.1306
     26 C18         5.9536   -1.3161  -12.7583 C.2       1 <0>         0.0143
     27 N3          4.7293   -1.7312  -13.1769 N.2       1 <0>        -0.1456
     28 N4          4.0822   -2.3568  -12.3291 N.2       1 <0>        -0.1109
     29 C19         6.9171   -0.5513  -13.5874 C.ar      1 <0>         0.0123
     30 C20         8.1602   -0.1692  -13.0748 C.ar      1 <0>        -0.1571
     31 C21         9.0267    0.5408  -13.8802 C.ar      1 <0>         0.1034
     32 N5          8.6950    0.8585  -15.1170 N.ar      1 <0>        -0.4787
     33 C22         7.5323    0.5172  -15.6388 C.ar      1 <0>         0.1032
     34 C23         6.6092   -0.1983  -14.9044 C.ar      1 <0>        -0.1402
     35 H3          0.1000    1.9660   -0.6060 H         1 <0>         0.0582
     36 H4         -1.4226    1.1459   -1.0273 H         1 <0>         0.0581
     37 H5         -1.1063    1.6249    0.6576 H         1 <0>         0.1021
     38 H6          0.1149    0.9704   -2.4397 H         1 <0>         0.1349
     39 H7          1.2261   -0.1137   -4.3486 H         1 <0>         0.1562
     40 H8          1.1842   -2.3225    0.0646 H         1 <0>         0.1416
     41 H9          1.3192   -4.3961   -0.2214 H         1 <0>         0.0592
     42 H10         2.8739   -5.2096   -0.5201 H         1 <0>         0.1032
     43 H11         2.8448   -3.5836    0.2036 H         1 <0>         0.0591
     44 H12         2.5676   -3.4151   -4.3259 H         1 <0>         0.4144
     45 H13         5.4619   -2.6005   -5.7287 H         1 <0>         0.0767
     46 H14         4.3771   -3.9791   -5.4284 H         1 <0>         0.0772
     47 H15         6.0868   -4.5727   -7.1117 H         1 <0>         0.0886
     48 H16         4.4656   -4.5590   -7.8478 H         1 <0>         0.0751
     49 H17         6.5552   -2.3374   -8.0009 H         1 <0>         0.0821
     50 H18         6.0194   -3.3897   -9.3361 H         1 <0>         0.0866
     51 H19         3.0668   -0.7607   -7.9266 H         1 <0>         0.1046
     52 H20         4.6310   -0.6236   -7.0829 H         1 <0>         0.0857
     53 H21         7.0416   -1.5176  -10.8736 H         1 <0>         0.1828
     54 H22         8.4381   -0.4255  -12.0631 H         1 <0>         0.1367
     55 H23         9.9892    0.8408  -13.4930 H         1 <0>         0.1620
     56 H24         7.3018    0.7981  -16.6559 H         1 <0>         0.1634
     57 H25         5.6610   -0.4780  -15.3393 H         1 <0>         0.1481
@<TRIPOS>BOND
     1    1    2 1
     2    1   35 1
     3    1   36 1
     4    1   37 1
     5    2    3 1
     6    3    8 ar
     7    3    4 ar
     8    4    5 ar
     9    4   38 1
    10    5    6 ar
    11    5   39 1
    12    6    7 ar
    13    6   11 1
    14    7    8 ar
    15    7    9 1
    16    8   40 1
    17    9   10 1
    18   10   41 1
    19   10   42 1
    20   10   43 1
    21   11   12 am
    22   11   44 1
    23   12   13 2
    24   12   14 1
    25   14   15 1
    26   14   20 1
    27   14   16 1
    28   16   17 1
    29   16   45 1
    30   16   46 1
    31   17   18 1
    32   17   47 1
    33   17   48 1
    34   18   19 1
    35   18   49 1
    36   18   50 1
    37   19   20 1
    38   19   21 am
    39   20   51 1
    40   20   52 1
    41   21   22 2
    42   21   23 1
    43   23   24 1
    44   23   28 1
    45   23   25 1
    46   25   26 2
    47   25   53 1
    48   26   27 1
    49   26   29 1
    50   27   28 2
    51   29   34 ar
    52   29   30 ar
    53   30   31 ar
    54   30   54 1
    55   31   32 ar
    56   31   55 1
    57   32   33 ar
    58   33   34 ar
    59   33   56 1
    60   34   57 1
@<TRIPOS>MOLECULE
ZINC13070781
   42    44     0     0     0
SMALL
USER_CHARGES
2,4-dichloro-5-[[(3S)-1,1-dioxothiolan-3-yl]-(2-furylmethyl)sulfamoyl]benzoic acid
@<TRIPOS>ATOM
      1 C1          0.5631    6.0984    3.5132 C.2       1 <0>        -0.2145
      2 C2          1.0681    4.7846    3.6474 C.2       1 <0>        -0.1762
      3 C3          0.8874    4.1747    2.4621 C.2       1 <0>        -0.0497
      4 O1          0.2955    5.0419    1.6245 O.3       1 <0>        -0.1742
      5 C4          0.0965    6.2101    2.2566 C.2       1 <0>        -0.0380
      6 C5          1.2770    2.7569    2.1321 C.3       1 <0>         0.1938
      7 N1          0.2263    1.8431    2.5873 N.pl3     1 <0>        -0.9770
      8 C6         -0.9142    1.5466    1.7169 C.3       1 <0>         0.1418
      9 H1         -1.5721    0.8340    2.2144 H         1 <0>         0.1279
     10 C7         -1.6932    2.8434    1.4267 C.3       1 <0>        -0.1494
     11 C8         -2.6889    2.5648    0.2646 C.3       1 <0>        -0.5694
     12 S1         -1.6398    1.5242   -0.8360 S.o2      1 <0>         2.3660
     13 O2         -0.9896    2.3617   -1.7821 O.2       1 <0>        -0.9297
     14 O3         -2.4043    0.4161   -1.2910 O.2       1 <0>        -0.9338
     15 C9         -0.4028    0.9344    0.3906 C.3       1 <0>        -0.6132
     16 S2          0.3277    1.1455    4.0857 S.o2      1 <0>         2.6886
     17 O4          1.1523    1.9933    4.8735 O.2       1 <0>        -0.9336
     18 O5         -0.9985    0.8053    4.4660 O.2       1 <0>        -0.9381
     19 C10         1.2021   -0.3724    3.8956 C.ar      1 <0>        -0.6903
     20 C11         2.4359   -0.5340    4.4891 C.ar      1 <0>         0.0438
     21 C12         3.1260   -1.7396    4.3421 C.ar      1 <0>        -0.1167
     22 C13         2.5643   -2.7716    3.5841 C.ar      1 <0>         0.0519
     23 C14         1.3307   -2.5943    2.9906 C.ar      1 <0>        -0.1346
     24 C15         0.6505   -1.3982    3.1453 C.ar      1 <0>         0.0548
     25 Cl1        -0.9007   -1.1831    2.3961 Cl        1 <0>        -0.0493
     26 Cl2         3.4157   -4.2720    3.3905 Cl        1 <0>        -0.0124
     27 C16         4.4446   -1.9212    4.9795 C.2       1 <0>         0.4853
     28 O6          5.0446   -2.9692    4.8462 O.co2     1 <0>        -0.5968
     29 H2          0.5504    6.8639    4.2749 H         1 <0>         0.1487
     30 H3          1.5154    4.3541    4.5311 H         1 <0>         0.1656
     31 H4         -0.3604    7.0900    1.8284 H         1 <0>         0.2020
     32 H5          2.2137    2.5116    2.6326 H         1 <0>         0.1266
     33 H6          1.4039    2.6565    1.0542 H         1 <0>         0.1058
     34 H7         -0.9976    3.6302    1.1348 H         1 <0>         0.1089
     35 H8         -2.2427    3.1498    2.3167 H         1 <0>         0.1072
     36 H9         -2.9844    3.4894   -0.2314 H         1 <0>         0.1454
     37 H10        -3.5608    2.0128    0.6154 H         1 <0>         0.1422
     38 H11        -0.3996   -0.1543    0.4433 H         1 <0>         0.1526
     39 H12         0.5911    1.3111    0.1489 H         1 <0>         0.1551
     40 H13         2.8660    0.2683    5.0701 H         1 <0>         0.1712
     41 H14         0.8951   -3.3902    2.4047 H         1 <0>         0.1507
     42 O7          4.9831   -0.9248    5.7092 O.co2     1 <0>        -0.7391
@<TRIPOS>BOND
     1    1    5 2
     2    1    2 1
     3    1   29 1
     4    2    3 2
     5    2   30 1
     6    3    4 1
     7    3    6 1
     8    4    5 1
     9    5   31 1
    10    6    7 1
    11    6   32 1
    12    6   33 1
    13    7    8 1
    14    7   16 1
    15    8    9 1
    16    8   15 1
    17    8   10 1
    18   10   11 1
    19   10   34 1
    20   10   35 1
    21   11   12 1
    22   11   36 1
    23   11   37 1
    24   12   13 2
    25   12   14 2
    26   12   15 1
    27   15   38 1
    28   15   39 1
    29   16   17 2
    30   16   18 2
    31   16   19 1
    32   19   24 ar
    33   19   20 ar
    34   20   21 ar
    35   20   40 1
    36   21   22 ar
    37   21   27 1
    38   22   23 ar
    39   22   26 1
    40   23   24 ar
    41   23   41 1
    42   24   25 1
    43   27   28 2
    44   27   42 1
@<TRIPOS>MOLECULE
ZINC13417299
   56    59     0     0     0
SMALL
USER_CHARGES
(3R)-1-[2-[[(7R)-3-ethyl-7-methyl-4-oxo-5,6,7,8-tetrahydrobenzothiopheno[2,3-d]pyrimidin-2-yl]sulfanyl]acetyl]piperidine-3-carboxylic acid
@<TRIPOS>ATOM
      1 C1         -1.9467   -1.8343    7.5922 C.3       1 <0>        -0.1688
      2 C2         -3.2774   -1.4976    6.9163 C.3       1 <0>         0.0800
      3 N1         -3.4524   -0.0435    6.8799 N.am      1 <0>        -0.5099
      4 C3         -4.0703    0.5728    7.9043 C.2       1 <0>         0.5603
      5 O1         -4.4820   -0.0702    8.8547 O.2       1 <0>        -0.5214
      6 C4         -4.2377    1.9932    7.8623 C.2       1 <0>        -0.2605
      7 C5         -4.8723    2.8615    8.8558 C.2       1 <0>        -0.0426
      8 C6         -4.9053    4.1815    8.5829 C.2       1 <0>        -0.1776
      9 S1         -4.1052    4.3467    7.0099 S.3       1 <0>         0.1378
     10 C7         -3.7274    2.6364    6.7221 C.2       1 <0>         0.1267
     11 N2         -3.1230    1.9694    5.7460 N.2       1 <0>        -0.5051
     12 C8         -2.9862    0.6602    5.8074 C.2       1 <0>         0.3600
     13 S2         -2.1840   -0.1926    4.4906 S.3       1 <0>         0.1112
     14 C9         -1.8010    1.2010    3.4009 C.3       1 <0>        -0.1525
     15 C10        -1.0909    0.6966    2.1711 C.2       1 <0>         0.5275
     16 O2         -0.8659   -0.4883    2.0439 O.2       1 <0>        -0.5279
     17 N3         -0.7059    1.5624    1.2126 N.am      1 <0>        -0.5970
     18 C11        -0.9748    3.0006    1.3501 C.3       1 <0>         0.1023
     19 C12        -1.7106    3.4895    0.0985 C.3       1 <0>        -0.1356
     20 C13        -0.8979    3.1179   -1.1439 C.3       1 <0>        -0.0980
     21 C14        -0.7593    1.5961   -1.2285 C.3       1 <0>        -0.1408
     22 H1         -1.7493    1.1418   -1.2690 H         1 <0>         0.0723
     23 C15        -0.0127    1.0858    0.0080 C.3       1 <0>         0.1355
     24 C16         0.0134    1.2296   -2.4694 C.2       1 <0>         0.4672
     25 O3          0.4100    2.0963   -3.2120 O.co2     1 <0>        -0.6354
     26 C17        -5.4934    5.2690    9.4295 C.3       1 <0>        -0.0291
     27 C18        -6.3904    4.6224   10.4947 C.3       1 <0>        -0.0874
     28 H2         -7.2983    4.2424   10.0265 H         1 <0>         0.0764
     29 C19        -5.6251    3.4662   11.1451 C.3       1 <0>        -0.1165
     30 C20        -5.4745    2.3169   10.1481 C.3       1 <0>        -0.0586
     31 C21        -6.7567    5.6613   11.5566 C.3       1 <0>        -0.1463
     32 H3         -1.9466   -1.4427    8.6095 H         1 <0>         0.0642
     33 H4         -1.8165   -2.9162    7.6193 H         1 <0>         0.0841
     34 H5         -1.1291   -1.3839    7.0294 H         1 <0>         0.0679
     35 H6         -4.0950   -1.9480    7.4791 H         1 <0>         0.1091
     36 H7         -3.2776   -1.8892    5.8991 H         1 <0>         0.1013
     37 H8         -1.1592    1.9078    3.9269 H         1 <0>         0.1307
     38 H9         -2.7258    1.6982    3.1083 H         1 <0>         0.1308
     39 H10        -0.0322    3.5382    1.4531 H         1 <0>         0.0738
     40 H11        -1.5948    3.1742    2.2296 H         1 <0>         0.0814
     41 H12        -1.8288    4.5720    0.1455 H         1 <0>         0.0733
     42 H13        -2.6918    3.0178    0.0459 H         1 <0>         0.0635
     43 H14         0.0919    3.5696   -1.0788 H         1 <0>         0.0642
     44 H15        -1.4073    3.4862   -2.0344 H         1 <0>         0.0669
     45 H16         0.0021   -0.0041    0.0020 H         1 <0>         0.1016
     46 H17         1.0091    1.4651    0.0003 H         1 <0>         0.0669
     47 H18        -4.6940    5.8298    9.9140 H         1 <0>         0.0843
     48 H19        -6.0869    5.9385    8.8070 H         1 <0>         0.0823
     49 H20        -4.6376    3.8119   11.4507 H         1 <0>         0.0654
     50 H21        -6.1723    3.1168   12.0207 H         1 <0>         0.0702
     51 H22        -6.4529    1.8834    9.9409 H         1 <0>         0.0774
     52 H23        -4.8161    1.5548   10.5652 H         1 <0>         0.0857
     53 H24        -7.2900    6.4880   11.0873 H         1 <0>         0.0572
     54 H25        -7.3934    5.2001   12.3116 H         1 <0>         0.0582
     55 H26        -5.8477    6.0358   12.0273 H         1 <0>         0.0568
     56 O4          0.2610   -0.0595   -2.7496 O.co2     1 <0>        -0.7640
@<TRIPOS>BOND
     1    1    2 1
     2    1   32 1
     3    1   33 1
     4    1   34 1
     5    2    3 1
     6    2   35 1
     7    2   36 1
     8    3   12 1
     9    3    4 am
    10    4    5 2
    11    4    6 1
    12    6   10 2
    13    6    7 1
    14    7   30 1
    15    7    8 2
    16    8    9 1
    17    8   26 1
    18    9   10 1
    19   10   11 1
    20   11   12 2
    21   12   13 1
    22   13   14 1
    23   14   15 1
    24   14   37 1
    25   14   38 1
    26   15   16 2
    27   15   17 am
    28   17   23 1
    29   17   18 1
    30   18   19 1
    31   18   39 1
    32   18   40 1
    33   19   20 1
    34   19   41 1
    35   19   42 1
    36   20   21 1
    37   20   43 1
    38   20   44 1
    39   21   22 1
    40   21   23 1
    41   21   24 1
    42   23   45 1
    43   23   46 1
    44   24   25 2
    45   24   56 1
    46   26   27 1
    47   26   47 1
    48   26   48 1
    49   27   28 1
    50   27   29 1
    51   27   31 1
    52   29   30 1
    53   29   49 1
    54   29   50 1
    55   30   51 1
    56   30   52 1
    57   31   53 1
    58   31   54 1
    59   31   55 1
@<TRIPOS>MOLECULE
ZINC35566141
   43    46     0     0     0
SMALL
USER_CHARGES

@<TRIPOS>ATOM
      1 C1         -0.2851    2.1369   -0.8206 C.3       1 <0>        -0.0847
      2 C2          0.8163    1.1220   -0.9873 C.2       1 <0>         0.1205
      3 C3          0.7657    0.1380   -1.9678 C.2       1 <0>        -0.2598
      4 S1          2.3055   -0.7112   -1.6557 S.3       1 <0>         0.1613
      5 C4          2.8336    0.2315   -0.3655 C.2       1 <0>         0.0368
      6 N1          1.8775    1.1207   -0.2203 N.2       1 <0>        -0.5241
      7 C5          4.1053    0.0922    0.4312 C.3       1 <0>        -0.0631
      8 C6         -0.2646   -0.1285   -2.9770 C.2       1 <0>         0.5534
      9 O1         -1.2925    0.5253   -2.9854 O.2       1 <0>        -0.4478
     10 C7         -0.0573   -1.1826   -3.9765 C.2       1 <0>        -0.4879
     11 C8          0.0755   -1.0133   -5.3125 C.2       1 <0>         0.2779
     12 C9          0.2668   -2.3295   -5.9523 C.2       1 <0>         0.5126
     13 O2          0.4160   -2.5098   -7.1449 O.2       1 <0>        -0.4812
     14 N2          0.2522   -3.3002   -5.0209 N.am      1 <0>        -0.4990
     15 C10         0.0557   -2.6659   -3.7120 C.3       1 <0>         0.2674
     16 H1          0.9083   -2.8672   -3.0634 H         1 <0>         0.0903
     17 C11        -1.2117   -3.1772   -3.0769 C.ar      1 <0>        -0.0542
     18 C12        -2.3524   -3.3359   -3.8415 C.ar      1 <0>        -0.0865
     19 C13        -3.5150   -3.8052   -3.2596 C.ar      1 <0>        -0.0883
     20 C14        -3.5369   -4.1160   -1.9119 C.ar      1 <0>        -0.0896
     21 C15        -2.3953   -3.9571   -1.1472 C.ar      1 <0>        -0.0879
     22 C16        -1.2318   -3.4927   -1.7311 C.ar      1 <0>        -0.0948
     23 Br1        -5.1273   -4.7576   -1.1150 Br        1 <0>        -0.0642
     24 C17         0.4027   -4.6606   -5.2556 C.2       1 <0>         0.3273
     25 N3          0.3952   -5.6791   -4.4062 N.2       1 <0>        -0.3185
     26 N4          0.5482   -6.8695   -4.7937 N.2       1 <0>        -0.2528
     27 C18         0.7248   -7.1772   -6.0636 C.2       1 <0>         0.0217
     28 S2          0.6546   -5.5435   -6.7930 S.3       1 <0>         0.0107
     29 C19         0.9234   -8.5212   -6.7158 C.3       1 <0>        -0.0494
     30 O3          0.0380    0.1750   -5.9597 O.3       1 <0>        -0.6270
     31 H2         -0.0728    3.0085   -1.4398 H         1 <0>         0.0768
     32 H3         -1.2342    1.6966   -1.1262 H         1 <0>         0.0934
     33 H4         -0.3449    2.4398    0.2248 H         1 <0>         0.0697
     34 H5          4.8917    0.6876   -0.0327 H         1 <0>         0.0877
     35 H6          3.9365    0.4432    1.4492 H         1 <0>         0.0894
     36 H7          4.4074   -0.9548    0.4532 H         1 <0>         0.0848
     37 H8         -2.3353   -3.0929   -4.8937 H         1 <0>         0.1209
     38 H9         -4.4062   -3.9288   -3.8570 H         1 <0>         0.1289
     39 H10        -2.4120   -4.1997   -0.0949 H         1 <0>         0.1308
     40 H11        -0.3392   -3.3724   -1.1350 H         1 <0>         0.1298
     41 H12        -0.0452   -8.9375   -6.9924 H         1 <0>         0.0889
     42 H13         1.5372   -8.4044   -7.6090 H         1 <0>         0.0853
     43 H14         1.4220   -9.1937   -6.0177 H         1 <0>         0.0947
@<TRIPOS>BOND
     1    1    2 1
     2    1   31 1
     3    1   32 1
     4    1   33 1
     5    2    6 1
     6    2    3 2
     7    3    4 1
     8    3    8 1
     9    4    5 1
    10    5    6 2
    11    5    7 1
    12    7   34 1
    13    7   35 1
    14    7   36 1
    15    8    9 2
    16    8   10 1
    17   10   15 1
    18   10   11 2
    19   11   12 1
    20   11   30 1
    21   12   13 2
    22   12   14 am
    23   14   15 1
    24   14   24 1
    25   15   16 1
    26   15   17 1
    27   17   22 ar
    28   17   18 ar
    29   18   19 ar
    30   18   37 1
    31   19   20 ar
    32   19   38 1
    33   20   21 ar
    34   20   23 1
    35   21   22 ar
    36   21   39 1
    37   22   40 1
    38   24   28 1
    39   24   25 2
    40   25   26 1
    41   26   27 2
    42   27   28 1
    43   27   29 1
    44   29   41 1
    45   29   42 1
    46   29   43 1
@<TRIPOS>MOLECULE
ZINC39167333
   56    61     0     0     0
SMALL
USER_CHARGES

@<TRIPOS>ATOM
      1 C1         -0.4759    1.4589    0.0746 C.3       1 <0>        -0.1247
      2 C2         -0.2168   -0.0250    0.0327 C.ar      1 <0>        -0.0631
      3 C3         -0.3176   -0.7109   -1.1634 C.ar      1 <0>        -0.1168
      4 C4         -0.0800   -2.0719   -1.2018 C.ar      1 <0>        -0.1078
      5 C5          0.2590   -2.7474   -0.0440 C.ar      1 <0>        -0.1182
      6 C6          0.3606   -2.0615    1.1516 C.ar      1 <0>        -0.1065
      7 C7          0.1271   -0.6994    1.1892 C.ar      1 <0>        -0.0863
      8 C8          0.2431    0.0494    2.4919 C.3       1 <0>        -0.0169
      9 H1          0.1207    1.1173    2.3113 H         1 <0>         0.1134
     10 C9          1.6003   -0.2080    3.1045 C.3       1 <0>        -0.0973
     11 H2          1.6651   -1.2424    3.4422 H         1 <0>         0.1005
     12 C10         2.8820    0.1662    2.2775 C.3       1 <0>        -0.0185
     13 H3          2.8955   -0.0503    1.2094 H         1 <0>         0.1337
     14 C11         3.0848    1.6739    2.7374 C.3       1 <0>        -0.1175
     15 C12         3.0757    1.3715    4.3208 C.3       1 <0>        -0.0374
     16 H4          3.1695    2.2371    4.9766 H         1 <0>         0.1325
     17 C13         1.7247    0.7546    4.3176 C.3       1 <0>        -0.1420
     18 H5          1.0919    1.5837    4.0008 H         1 <0>         0.1098
     19 S1          0.8140    0.0639    5.6865 S.3       1 <0>         0.1561
     20 C14        -0.6835   -0.0739    4.9151 C.2       1 <0>         0.2016
     21 N1         -1.8293    0.1246    5.4948 N.2       1 <0>        -0.5566
     22 C15        -3.0053    0.2359    4.8347 C.2       1 <0>         0.5765
     23 O1         -4.1359    0.2764    5.2853 O.2       1 <0>        -0.3815
     24 S2         -2.4671    0.3094    3.1194 S.3       1 <0>        -0.2684
     25 C16        -0.8208   -0.4259    3.4425 C.3       1 <0>        -0.0631
     26 H6         -0.9141   -1.5081    3.3518 H         1 <0>         0.1453
     27 C17         4.3111    0.4934    4.2778 C.3       1 <0>        -0.1156
     28 H7          5.1933    1.0599    3.9796 H         1 <0>         0.1488
     29 C18         3.8456   -0.5617    3.1671 C.3       1 <0>        -0.1907
     30 H8          3.1186   -1.1314    3.7459 H         1 <0>         0.0955
     31 C19         4.9028   -1.5301    3.2017 C.2       1 <0>         0.5754
     32 O2          5.4048   -2.1319    2.2768 O.2       1 <0>        -0.4620
     33 N2          5.2096   -1.6098    4.5470 N.am      1 <0>        -0.6192
     34 C20         4.6450   -0.5424    5.3092 C.2       1 <0>         0.5492
     35 O3          4.4377   -0.4976    6.5028 O.2       1 <0>        -0.4410
     36 C21         6.0647   -2.6489    5.1260 C.3       1 <0>         0.1034
     37 C22         7.5202   -2.1775    5.1128 C.3       1 <0>        -0.1068
     38 C23         8.4133   -3.2627    5.7174 C.3       1 <0>        -0.1810
     39 C24         9.8469   -2.7984    5.7045 C.2       1 <0>         0.4905
     40 O4         10.1282   -1.7011    5.2535 O.co2     1 <0>        -0.6983
     41 O5         10.7254   -3.5199    6.1450 O.co2     1 <0>        -0.7051
     42 H9          0.4697    1.9953   -0.0046 H         1 <0>         0.0752
     43 H10        -1.1229    1.7384   -0.7570 H         1 <0>         0.0690
     44 H11        -0.9620    1.7165    1.0155 H         1 <0>         0.0717
     45 H12        -0.5824   -0.1833   -2.0678 H         1 <0>         0.1237
     46 H13        -0.1594   -2.6079   -2.1360 H         1 <0>         0.1232
     47 H14         0.4440   -3.8110   -0.0738 H         1 <0>         0.1241
     48 H15         0.6251   -2.5892    2.0561 H         1 <0>         0.1189
     49 H16         4.0405    2.0781    2.4038 H         1 <0>         0.0980
     50 H17         2.2508    2.3085    2.4375 H         1 <0>         0.0885
     51 H18         5.7552   -2.8438    6.1527 H         1 <0>         0.0860
     52 H19         5.9735   -3.5630    4.5393 H         1 <0>         0.0843
     53 H20         7.8297   -1.9826    4.0860 H         1 <0>         0.0672
     54 H21         7.6113   -1.2634    5.6995 H         1 <0>         0.0620
     55 H22         8.1037   -3.4577    6.7442 H         1 <0>         0.0588
     56 H23         8.3221   -4.1768    5.1307 H         1 <0>         0.0594
@<TRIPOS>BOND
     1    1    2 1
     2    1   42 1
     3    1   43 1
     4    1   44 1
     5    2    7 ar
     6    2    3 ar
     7    3    4 ar
     8    3   45 1
     9    4    5 ar
    10    4   46 1
    11    5    6 ar
    12    5   47 1
    13    6    7 ar
    14    6   48 1
    15    7    8 1
    16    8    9 1
    17    8   25 1
    18    8   10 1
    19   10   11 1
    20   10   17 1
    21   10   12 1
    22   12   13 1
    23   12   29 1
    24   12   14 1
    25   14   15 1
    26   14   49 1
    27   14   50 1
    28   15   16 1
    29   15   17 1
    30   15   27 1
    31   17   18 1
    32   17   19 1
    33   19   20 1
    34   20   25 1
    35   20   21 2
    36   21   22 1
    37   22   23 2
    38   22   24 1
    39   24   25 1
    40   25   26 1
    41   27   28 1
    42   27   34 1
    43   27   29 1
    44   29   30 1
    45   29   31 1
    46   31   32 2
    47   31   33 am
    48   33   34 am
    49   33   36 1
    50   34   35 2
    51   36   37 1
    52   36   51 1
    53   36   52 1
    54   37   38 1
    55   37   53 1
    56   37   54 1
    57   38   39 1
    58   38   55 1
    59   38   56 1
    60   39   40 2
    61   39   41 1
@<TRIPOS>MOLECULE
ZINC39935218
   54    57     0     0     0
SMALL
USER_CHARGES

@<TRIPOS>ATOM
      1 C1         -0.1944    0.9615   -0.4886 C.ar      1 <0>        -0.0843
      2 C2          0.8712    1.7977   -0.2117 C.ar      1 <0>        -0.1269
      3 C3          2.1450    1.2726   -0.0583 C.ar      1 <0>         0.1703
      4 C4          2.3464   -0.1122   -0.1853 C.ar      1 <0>         0.1928
      5 C5          1.2596   -0.9446   -0.4648 C.ar      1 <0>        -0.0483
      6 C6         -0.0003   -0.4036   -0.6145 C.ar      1 <0>        -0.6520
      7 S1         -1.3695   -1.4549   -0.9671 S.o2      1 <0>         2.6862
      8 O1         -1.0196   -2.7492   -0.4964 O.2       1 <0>        -0.9549
      9 O2         -2.5324   -0.7707   -0.5211 O.2       1 <0>        -0.9680
     10 N1         -1.4892   -1.5670   -2.6150 N.pl3     1 <0>        -0.9988
     11 C7         -2.3063   -0.6097   -3.3730 C.3       1 <0>         0.1224
     12 C8         -1.4424    0.0121   -4.4747 C.3       1 <0>        -0.1367
     13 C9         -0.8279   -1.1018   -5.3254 C.3       1 <0>        -0.1142
     14 C10         0.0666   -1.9812   -4.4487 C.3       1 <0>        -0.1376
     15 C11        -0.7754   -2.6219   -3.3473 C.3       1 <0>         0.1211
     16 N2          3.5952   -0.6404   -0.0369 N.2       1 <0>        -0.6402
     17 C12         3.7831   -1.6665    0.7589 C.2       1 <0>         0.4484
     18 O3          2.7633   -2.1273    1.5224 O.3       1 <0>        -0.6874
     19 C13         5.0951   -2.3134    0.8218 C.2       1 <0>         0.2326
     20 N3          5.4293   -3.3391    1.5557 N.2       1 <0>        -0.4519
     21 C14         6.7057   -3.7114    1.4025 C.2       1 <0>         0.1158
     22 C15         7.3610   -2.9437    0.5243 C.2       1 <0>        -0.1380
     23 C16         6.3386   -1.9308    0.0420 C.3       1 <0>        -0.1019
     24 Cl1         9.0214   -3.0807    0.0364 Cl        1 <0>        -0.0247
     25 Cl2         7.4306   -5.0420    2.2496 Cl        1 <0>        -0.0244
     26 N4          3.2210    2.1146    0.2201 N.pl3     1 <0>        -0.6586
     27 C17         4.0096    2.7200   -0.8648 C.3       1 <0>         0.1226
     28 C18         4.1122    4.2273   -0.6050 C.3       1 <0>         0.0464
     29 O4          4.5903    4.4442    0.7248 O.3       1 <0>        -0.3857
     30 C19         3.7237    3.9461    1.7469 C.3       1 <0>         0.0490
     31 C20         3.5977    2.4289    1.6074 C.3       1 <0>         0.1179
     32 H1         -1.1854    1.3753   -0.6030 H         1 <0>         0.1215
     33 H2          0.7111    2.8614   -0.1151 H         1 <0>         0.1145
     34 H3          1.4060   -2.0100   -0.5643 H         1 <0>         0.1268
     35 H4         -3.1538   -1.1278   -3.8220 H         1 <0>         0.0696
     36 H5         -2.6660    0.1730   -2.7051 H         1 <0>         0.0889
     37 H6         -2.0607    0.6519   -5.1044 H         1 <0>         0.0713
     38 H7         -0.6474    0.6051   -4.0224 H         1 <0>         0.0708
     39 H8         -1.6231   -1.7094   -5.7575 H         1 <0>         0.0613
     40 H9         -0.2324   -0.6614   -6.1252 H         1 <0>         0.0618
     41 H10         0.5222   -2.7602   -5.0599 H         1 <0>         0.0729
     42 H11         0.8473   -1.3695   -3.9967 H         1 <0>         0.0712
     43 H12        -0.1254   -3.1664   -2.6625 H         1 <0>         0.0910
     44 H13        -1.4953   -3.3077   -3.7941 H         1 <0>         0.0700
     45 H14         6.1685   -2.0312   -1.0299 H         1 <0>         0.1408
     46 H15         6.6542   -0.9177    0.2910 H         1 <0>         0.1411
     47 H16         5.0074    2.2817   -0.8821 H         1 <0>         0.0560
     48 H17         3.5147    2.5450   -1.8201 H         1 <0>         0.0720
     49 H18         4.8051    4.6734   -1.3183 H         1 <0>         0.0925
     50 H19         3.1288    4.6839   -0.7172 H         1 <0>         0.0472
     51 H20         4.1372    4.1899    2.7255 H         1 <0>         0.0936
     52 H21         2.7390    4.4016    1.6431 H         1 <0>         0.0480
     53 H22         2.8303    2.0613    2.2885 H         1 <0>         0.0730
     54 H23         4.5534    1.9608    1.8433 H         1 <0>         0.0531
@<TRIPOS>BOND
     1    1    6 ar
     2    1    2 ar
     3    1   32 1
     4    2    3 ar
     5    2   33 1
     6    3    4 ar
     7    3   26 1
     8    4    5 ar
     9    4   16 1
    10    5    6 ar
    11    5   34 1
    12    6    7 1
    13    7    8 2
    14    7    9 2
    15    7   10 1
    16   10   15 1
    17   10   11 1
    18   11   12 1
    19   11   35 1
    20   11   36 1
    21   12   13 1
    22   12   37 1
    23   12   38 1
    24   13   14 1
    25   13   39 1
    26   13   40 1
    27   14   15 1
    28   14   41 1
    29   14   42 1
    30   15   43 1
    31   15   44 1
    32   16   17 2
    33   17   18 1
    34   17   19 1
    35   19   23 1
    36   19   20 2
    37   20   21 1
    38   21   22 2
    39   21   25 1
    40   22   23 1
    41   22   24 1
    42   23   45 1
    43   23   46 1
    44   26   31 1
    45   26   27 1
    46   27   28 1
    47   27   47 1
    48   27   48 1
    49   28   29 1
    50   28   49 1
    51   28   50 1
    52   29   30 1
    53   30   31 1
    54   30   51 1
    55   30   52 1
    56   31   53 1
    57   31   54 1
@<TRIPOS>MOLECULE
ZINC13254614
   55    57     0     0     0
SMALL
USER_CHARGES
(3R)-1-[2-(3-butyl-5,6-dimethyl-4-oxo-thieno[2,3-d]pyrimidin-2-yl)sulfanylacetyl]piperidine-3-carboxylic acid
@<TRIPOS>ATOM
      1 C1          4.1417    3.3236   -8.3340 C.3       1 <0>        -0.1519
      2 C2          3.3573    4.4321   -7.6290 C.3       1 <0>        -0.1196
      3 C3          1.8767    4.0510   -7.5705 C.3       1 <0>        -0.1352
      4 C4          1.0923    5.1594   -6.8655 C.3       1 <0>         0.0834
      5 N1         -0.3254    4.7946   -6.8095 N.am      1 <0>        -0.5091
      6 C5         -1.1413    5.1600   -7.8152 C.2       1 <0>         0.5619
      7 O1         -0.7073    5.7894   -8.7647 O.2       1 <0>        -0.5204
      8 C6         -2.5247    4.8007   -7.7556 C.2       1 <0>        -0.2604
      9 C7         -3.5882    5.0765   -8.7061 C.2       1 <0>        -0.0525
     10 C8         -4.8290    4.6391   -8.4459 C.2       1 <0>        -0.1739
     11 S1         -4.6555    3.8102   -6.8771 S.3       1 <0>         0.1297
     12 C9         -2.9204    4.0752   -6.6159 C.2       1 <0>         0.1281
     13 N2         -2.0619    3.7417   -5.6601 N.2       1 <0>        -0.5059
     14 C10        -0.7936    4.0901   -5.7383 C.2       1 <0>         0.3607
     15 S2          0.3144    3.6341   -4.4464 S.3       1 <0>         0.1125
     16 C11        -0.8266    2.7567   -3.3489 C.3       1 <0>        -0.1529
     17 C12        -0.0781    2.2613   -2.1384 C.2       1 <0>         0.5274
     18 O2          1.1098    2.4799   -2.0285 O.2       1 <0>        -0.5277
     19 N3         -0.7287    1.5752   -1.1779 N.am      1 <0>        -0.5969
     20 C13        -2.1677    1.3030   -1.2967 C.3       1 <0>         0.1022
     21 C14        -2.8694    1.7974   -0.0279 C.3       1 <0>        -0.1353
     22 C15        -2.2083    1.1610    1.1968 C.3       1 <0>        -0.0982
     23 C16        -0.7355    1.5827    1.2640 C.3       1 <0>        -0.1405
     24 H1         -0.6707    2.6696    1.3150 H         1 <0>         0.0723
     25 C17        -0.0127    1.0858    0.0080 C.3       1 <0>         0.1354
     26 C18        -0.0906    0.9818    2.4863 C.2       1 <0>         0.4674
     27 O3         -0.7404    0.2896    3.2337 O.co2     1 <0>        -0.6354
     28 C19        -6.0726    4.8079   -9.2801 C.3       1 <0>        -0.0623
     29 C20        -3.3006    5.8457   -9.9697 C.3       1 <0>        -0.1035
     30 H2          5.1966    3.5951   -8.3757 H         1 <0>         0.0573
     31 H3          4.0282    2.3906   -7.7819 H         1 <0>         0.0571
     32 H4          3.7593    3.1954   -9.3466 H         1 <0>         0.0529
     33 H5          3.4709    5.3650   -8.1811 H         1 <0>         0.0658
     34 H6          3.7398    4.5602   -6.6164 H         1 <0>         0.0702
     35 H7          1.7632    3.1180   -7.0184 H         1 <0>         0.0749
     36 H8          1.4942    3.9228   -8.5831 H         1 <0>         0.0717
     37 H9          1.2058    6.0924   -7.4176 H         1 <0>         0.1094
     38 H10         1.4748    5.2876   -5.8529 H         1 <0>         0.1014
     39 H11        -1.2613    1.9094   -3.8792 H         1 <0>         0.1307
     40 H12        -1.6202    3.4339   -3.0334 H         1 <0>         0.1309
     41 H13        -2.5684    1.8276   -2.1640 H         1 <0>         0.0812
     42 H14        -2.3284    0.2310   -1.4117 H         1 <0>         0.0739
     43 H15        -2.7847    2.8822    0.0354 H         1 <0>         0.0636
     44 H16        -3.9220    1.5160   -0.0612 H         1 <0>         0.0733
     45 H17        -2.7216    1.4920    2.0996 H         1 <0>         0.0668
     46 H18        -2.2714    0.0755    1.1205 H         1 <0>         0.0641
     47 H19         0.0021   -0.0041    0.0020 H         1 <0>         0.0669
     48 H20         1.0091    1.4651    0.0003 H         1 <0>         0.1017
     49 H21        -6.9143    4.3304   -8.7784 H         1 <0>         0.0735
     50 H22        -6.2818    5.8697   -9.4097 H         1 <0>         0.0803
     51 H23        -5.9213    4.3456  -10.2556 H         1 <0>         0.0799
     52 H24        -3.0231    5.1511  -10.7626 H         1 <0>         0.0701
     53 H25        -4.1902    6.4006  -10.2677 H         1 <0>         0.0650
     54 H26        -2.4805    6.5415   -9.7928 H         1 <0>         0.0822
     55 O4          1.2057    1.2155    2.7448 O.co2     1 <0>        -0.7639
@<TRIPOS>BOND
     1    1    2 1
     2    1   30 1
     3    1   31 1
     4    1   32 1
     5    2    3 1
     6    2   33 1
     7    2   34 1
     8    3    4 1
     9    3   35 1
    10    3   36 1
    11    4    5 1
    12    4   37 1
    13    4   38 1
    14    5   14 1
    15    5    6 am
    16    6    7 2
    17    6    8 1
    18    8   12 2
    19    8    9 1
    20    9   10 2
    21    9   29 1
    22   10   11 1
    23   10   28 1
    24   11   12 1
    25   12   13 1
    26   13   14 2
    27   14   15 1
    28   15   16 1
    29   16   17 1
    30   16   39 1
    31   16   40 1
    32   17   18 2
    33   17   19 am
    34   19   25 1
    35   19   20 1
    36   20   21 1
    37   20   41 1
    38   20   42 1
    39   21   22 1
    40   21   43 1
    41   21   44 1
    42   22   23 1
    43   22   45 1
    44   22   46 1
    45   23   24 1
    46   23   25 1
    47   23   26 1
    48   25   47 1
    49   25   48 1
    50   26   27 2
    51   26   55 1
    52   28   49 1
    53   28   50 1
    54   28   51 1
    55   29   52 1
    56   29   53 1
    57   29   54 1
@<TRIPOS>MOLECULE
ZINC13449063
   54    57     0     0     0
SMALL
USER_CHARGES
1-[3-[(2S,6R)-2,6-dimethylmorpholin-4-yl]sulfonylbenzoyl]indoline-5-carboxylic acid
@<TRIPOS>ATOM
      1 C1         -3.4695   -6.4727   -4.0966 C.3       1 <0>        -0.1465
      2 C2         -3.9726   -5.3338   -3.2074 C.3       1 <0>         0.0748
      3 H1         -3.1882   -4.5852   -3.0960 H         1 <0>         0.0646
      4 C3         -4.3501   -5.8889   -1.8292 C.3       1 <0>         0.0895
      5 N1         -5.0015   -4.8170   -1.0597 N.pl3     1 <0>        -1.0006
      6 C4         -6.1107   -4.0866   -1.6935 C.3       1 <0>         0.0912
      7 C5         -5.6439   -3.6158   -3.0803 C.3       1 <0>         0.0737
      8 H2         -4.8656   -2.8609   -2.9684 H         1 <0>         0.0638
      9 O1         -5.1244   -4.7335   -3.8046 O.3       1 <0>        -0.3696
     10 C6         -6.8289   -3.0191   -3.8422 C.3       1 <0>        -0.1456
     11 S1         -4.5056   -4.4482    0.4767 S.o2      1 <0>         2.6909
     12 O2         -3.8764   -5.6139    0.9911 O.2       1 <0>        -0.9442
     13 O3         -5.6103   -3.8307    1.1228 O.2       1 <0>        -0.9497
     14 C7         -3.2514   -3.2184    0.3382 C.ar      1 <0>        -0.6881
     15 C8         -3.5949   -1.8779    0.3473 C.ar      1 <0>        -0.0005
     16 C9         -2.6165   -0.9060    0.2386 C.ar      1 <0>        -0.1421
     17 C10        -1.2904   -1.2679    0.1198 C.ar      1 <0>        -0.0724
     18 C11        -0.9370   -2.6182    0.1098 C.ar      1 <0>        -0.1435
     19 C12        -1.9299   -3.5941    0.2146 C.ar      1 <0>         0.0391
     20 C13         0.4816   -3.0133   -0.0171 C.2       1 <0>         0.5618
     21 O4          0.7754   -4.1829   -0.1698 O.2       1 <0>        -0.5076
     22 N2          1.4494   -2.0768    0.0364 N.am      1 <0>        -0.5408
     23 C14         1.2152   -0.6320    0.0997 C.3       1 <0>         0.0881
     24 C15         2.6150    0.0024    0.1433 C.3       1 <0>        -0.0832
     25 C16         3.5650   -1.1738    0.0998 C.ar      1 <0>        -0.1515
     26 C17         2.8165   -2.3427    0.0388 C.ar      1 <0>         0.1247
     27 C18         3.4765   -3.5757   -0.0111 C.ar      1 <0>        -0.1398
     28 C19         4.8491   -3.6324    0.0001 C.ar      1 <0>        -0.0530
     29 C20         5.5985   -2.4539    0.0616 C.ar      1 <0>        -0.1235
     30 C21         4.9408   -1.2214    0.1122 C.ar      1 <0>        -0.0471
     31 C22         7.0719   -2.5106    0.0745 C.2       1 <0>         0.4917
     32 O5          7.7190   -1.4835    0.1281 O.co2     1 <0>        -0.6325
     33 H3         -4.2549   -7.2200   -4.2090 H         1 <0>         0.0674
     34 H4         -3.2013   -6.0773   -5.0764 H         1 <0>         0.0689
     35 H5         -2.5938   -6.9320   -3.6381 H         1 <0>         0.0782
     36 H6         -3.4518   -6.2208   -1.3085 H         1 <0>         0.1020
     37 H7         -5.0374   -6.7268   -1.9459 H         1 <0>         0.0873
     38 H8         -6.9725   -4.7459   -1.7973 H         1 <0>         0.0865
     39 H9         -6.3788   -3.2245   -1.0828 H         1 <0>         0.0990
     40 H10        -7.6075   -3.7740   -3.9521 H         1 <0>         0.0675
     41 H11        -7.2244   -2.1670   -3.2894 H         1 <0>         0.0749
     42 H12        -6.4990   -2.6912   -4.8280 H         1 <0>         0.0685
     43 H13        -4.6315   -1.5892    0.4394 H         1 <0>         0.1440
     44 H14        -2.8913    0.1384    0.2464 H         1 <0>         0.1426
     45 H15        -0.5276   -0.5082    0.0342 H         1 <0>         0.1718
     46 H16        -1.6636   -4.6406    0.2028 H         1 <0>         0.1533
     47 H17         0.6759   -0.2972   -0.7865 H         1 <0>         0.0909
     48 H18         0.6570   -0.3786    1.0010 H         1 <0>         0.0908
     49 H19         2.7677    0.6470   -0.7222 H         1 <0>         0.0912
     50 H20         2.7480    0.5674    1.0659 H         1 <0>         0.0914
     51 H21         2.9026   -4.4894   -0.0584 H         1 <0>         0.1347
     52 H22         5.3497   -4.5887   -0.0341 H         1 <0>         0.1385
     53 H23         5.5122   -0.3062    0.1602 H         1 <0>         0.1316
     54 O6          7.7008   -3.7014    0.0270 O.co2     1 <0>        -0.7527
@<TRIPOS>BOND
     1    1    2 1
     2    1   33 1
     3    1   34 1
     4    1   35 1
     5    2    3 1
     6    2    9 1
     7    2    4 1
     8    4    5 1
     9    4   36 1
    10    4   37 1
    11    5    6 1
    12    5   11 1
    13    6    7 1
    14    6   38 1
    15    6   39 1
    16    7    8 1
    17    7    9 1
    18    7   10 1
    19   10   40 1
    20   10   41 1
    21   10   42 1
    22   11   12 2
    23   11   13 2
    24   11   14 1
    25   14   19 ar
    26   14   15 ar
    27   15   16 ar
    28   15   43 1
    29   16   17 ar
    30   16   44 1
    31   17   18 ar
    32   17   45 1
    33   18   19 ar
    34   18   20 1
    35   19   46 1
    36   20   21 2
    37   20   22 am
    38   22   26 1
    39   22   23 1
    40   23   24 1
    41   23   47 1
    42   23   48 1
    43   24   25 1
    44   24   49 1
    45   24   50 1
    46   25   30 ar
    47   25   26 ar
    48   26   27 ar
    49   27   28 ar
    50   27   51 1
    51   28   29 ar
    52   28   52 1
    53   29   30 ar
    54   29   31 1
    55   30   53 1
    56   31   32 2
    57   31   54 1
@<TRIPOS>MOLECULE
ZINC35420949
   50    53     0     0     0
SMALL
USER_CHARGES

@<TRIPOS>ATOM
      1 C1         -0.0184    1.5028    0.0103 C.3       1 <0>        -0.0874
      2 C2          0.0021   -0.0041    0.0020 C.2       1 <0>         0.2092
      3 C3          0.0062   -0.7336   -1.1858 C.2       1 <0>        -0.3860
      4 S1          0.0327   -2.4008   -0.5463 S.3       1 <0>         0.2221
      5 C4          0.0357   -2.0219    1.0934 C.2       1 <0>         0.3239
      6 N1          0.0225   -0.6998    1.1077 N.2       1 <0>        -0.5670
      7 N2          0.0533   -2.8870    2.1694 N.am      1 <0>        -0.5005
      8 C5          0.0492   -2.5037    3.5861 C.3       1 <0>         0.2584
      9 H1         -0.8538   -1.9397    3.8194 H         1 <0>         0.0926
     10 C6          0.0729   -3.7948    4.3708 C.2       1 <0>        -0.4678
     11 C7          0.0885   -4.8011    3.4659 C.2       1 <0>         0.2863
     12 C8          0.0712   -4.2307    2.1049 C.2       1 <0>         0.5084
     13 O1          0.0751   -4.8792    1.0772 O.2       1 <0>        -0.4767
     14 O2          0.1121   -6.1217    3.7624 O.3       1 <0>        -0.5862
     15 C9          0.0783   -3.9312    5.8322 C.2       1 <0>         0.4492
     16 O3          0.0982   -5.0383    6.3406 O.2       1 <0>        -0.4828
     17 C10         0.0598   -2.7372    6.6787 C.2       1 <0>        -0.1886
     18 C11         0.0648   -2.8627    8.0236 C.2       1 <0>        -0.0734
     19 C12         0.0462   -1.6629    8.8743 C.ar      1 <0>        -0.0534
     20 C13         0.0175   -0.3900    8.2944 C.ar      1 <0>        -0.1105
     21 C14        -0.0003    0.7296    9.0987 C.ar      1 <0>        -0.1197
     22 C15         0.0107    0.5967   10.4765 C.ar      1 <0>        -0.1228
     23 C16         0.0395   -0.6591   11.0581 C.ar      1 <0>        -0.1216
     24 C17         0.0513   -1.7887   10.2678 C.ar      1 <0>        -0.1056
     25 C18         1.2707   -1.6802    3.9038 C.ar      1 <0>        -0.1100
     26 C19         1.1794   -0.5875    4.7528 C.ar      1 <0>        -0.0647
     27 C20         2.3290    0.1410    5.0165 C.ar      1 <0>        -0.1681
     28 C21         3.5195   -0.2431    4.4285 C.ar      1 <0>         0.0889
     29 N3          3.5689   -1.2879    3.6256 N.ar      1 <0>        -0.4809
     30 C22         2.4968   -2.0076    3.3572 C.ar      1 <0>         0.1185
     31 C23        -0.0073   -0.2813   -2.5203 C.2       1 <0>         0.4474
     32 O4         -0.0255    0.9100   -2.7577 O.2       1 <0>        -0.4723
     33 C24         0.0008   -1.2753   -3.6530 C.3       1 <0>        -0.1975
     34 H2          1.0042    1.8801    0.0026 H         1 <0>         0.0817
     35 H3         -0.5455    1.8639   -0.8728 H         1 <0>         0.0942
     36 H4         -0.5286    1.8543    0.9071 H         1 <0>         0.0752
     37 H5          0.0421   -1.7559    6.2281 H         1 <0>         0.1227
     38 H6          0.0824   -3.8441    8.4743 H         1 <0>         0.1316
     39 H7          0.0096   -0.2847    7.2196 H         1 <0>         0.1243
     40 H8         -0.0225    1.7129    8.6527 H         1 <0>         0.1223
     41 H9         -0.0030    1.4777   11.1012 H         1 <0>         0.1194
     42 H10         0.0483   -0.7543   12.1339 H         1 <0>         0.1215
     43 H11         0.0693   -2.7679   10.7230 H         1 <0>         0.1256
     44 H12         0.2351   -0.3105    5.1978 H         1 <0>         0.1318
     45 H13         2.2947    0.9981    5.6727 H         1 <0>         0.1324
     46 H14         4.4196    0.3191    4.6288 H         1 <0>         0.1507
     47 H15         2.5772   -2.8599    2.6988 H         1 <0>         0.1401
     48 H16        -1.0248   -1.5296   -3.9206 H         1 <0>         0.0964
     49 H17         0.5039   -0.8388   -4.5158 H         1 <0>         0.0887
     50 H18         0.5292   -2.1764   -3.3417 H         1 <0>         0.0803
@<TRIPOS>BOND
     1    1    2 1
     2    1   34 1
     3    1   35 1
     4    1   36 1
     5    2    6 1
     6    2    3 2
     7    3    4 1
     8    3   31 1
     9    4    5 1
    10    5    6 2
    11    5    7 1
    12    7   12 am
    13    7    8 1
    14    8    9 1
    15    8   10 1
    16    8   25 1
    17   10   11 2
    18   10   15 1
    19   11   12 1
    20   11   14 1
    21   12   13 2
    22   15   16 2
    23   15   17 1
    24   17   18 2
    25   17   37 1
    26   18   19 1
    27   18   38 1
    28   19   24 ar
    29   19   20 ar
    30   20   21 ar
    31   20   39 1
    32   21   22 ar
    33   21   40 1
    34   22   23 ar
    35   22   41 1
    36   23   24 ar
    37   23   42 1
    38   24   43 1
    39   25   30 ar
    40   25   26 ar
    41   26   27 ar
    42   26   44 1
    43   27   28 ar
    44   27   45 1
    45   28   29 ar
    46   28   46 1
    47   29   30 ar
    48   30   47 1
    49   31   32 2
    50   31   33 1
    51   33   48 1
    52   33   49 1
    53   33   50 1
@<TRIPOS>MOLECULE
ZINC39646897
   38    40     0     0     0
SMALL
USER_CHARGES

@<TRIPOS>ATOM
      1 C1         -0.0184    1.5028    0.0103 C.3       1 <0>        -0.1340
      2 C2          0.0021   -0.0041    0.0020 C.2       1 <0>         0.1259
      3 C3          0.0061   -0.6913   -1.1499 C.2       1 <0>        -0.3451
      4 C4          0.0265   -2.1674   -1.0686 C.2       1 <0>         0.2907
      5 N1          0.0301   -2.8951   -2.1601 N.2       1 <0>        -0.5579
      6 C5          0.0156   -2.3368   -3.3603 C.2       1 <0>         0.4603
      7 N2         -0.0025   -1.0400   -3.5541 N.2       1 <0>        -0.6232
      8 C6         -0.0083   -0.1578   -2.5494 C.2       1 <0>         0.5641
      9 O1         -0.0256    1.0422   -2.7654 O.2       1 <0>        -0.4681
     10 C7          0.0209   -3.2390   -4.5674 C.3       1 <0>        -0.0715
     11 S1         -0.0013   -2.2313   -6.0756 S.3       1 <0>         0.1571
     12 C8          0.0072   -3.4159   -7.3800 C.2       1 <0>         0.0413
     13 N3          0.0195   -4.7333   -7.3126 N.2       1 <0>        -0.3097
     14 N4          0.0234   -5.4777   -8.4695 N.2       1 <0>        -0.2978
     15 C9          0.0149   -4.8706   -9.6407 C.2       1 <0>         0.0508
     16 S2         -0.0065   -3.1540   -9.1469 S.3       1 <0>         0.0556
     17 S3          0.0173   -5.5668  -11.2593 S.3       1 <0>         0.0404
     18 C10         0.0338   -7.3570  -10.9670 C.3       1 <0>        -0.0834
     19 C11        -1.2684   -7.7736  -10.2801 C.3       1 <0>        -0.1524
     20 C12         0.1628   -8.0908  -12.3033 C.3       1 <0>        -0.1357
     21 S4          0.0403   -2.5232    0.6703 S.3       1 <0>         0.0482
     22 C13         0.0250   -0.7926    1.2917 C.3       1 <0>        -0.1460
     23 H1         -0.8698   -0.5994    1.8833 H         1 <0>         0.1601
     24 C14         1.2698   -0.4918    2.0860 C.2       1 <0>         0.5291
     25 O2          1.1930   -0.2873    3.2855 O.co2     1 <0>        -0.6478
     26 O3          2.3538   -0.4529    1.5292 O.co2     1 <0>        -0.6474
     27 H2          1.0042    1.8801    0.0026 H         1 <0>         0.1079
     28 H3         -0.5455    1.8639   -0.8728 H         1 <0>         0.1018
     29 H4         -0.5286    1.8543    0.9071 H         1 <0>         0.0841
     30 H5          0.9194   -3.8560   -4.5560 H         1 <0>         0.1358
     31 H6         -0.8604   -3.8800   -4.5458 H         1 <0>         0.1354
     32 H7          0.8793   -7.6132  -10.3286 H         1 <0>         0.1041
     33 H8         -1.2585   -8.8493  -10.1044 H         1 <0>         0.0703
     34 H9         -1.3603   -7.2508   -9.3281 H         1 <0>         0.0716
     35 H10        -2.1140   -7.5174  -10.9184 H         1 <0>         0.0662
     36 H11         1.0905   -7.7940  -12.7926 H         1 <0>         0.0687
     37 H12         0.1727   -9.1665  -12.1276 H         1 <0>         0.0822
     38 H13        -0.6827   -7.8347  -12.9416 H         1 <0>         0.0684
@<TRIPOS>BOND
     1    1    2 1
     2    1   27 1
     3    1   28 1
     4    1   29 1
     5    2   22 1
     6    2    3 2
     7    3    8 1
     8    3    4 1
     9    4    5 2
    10    4   21 1
    11    5    6 1
    12    6    7 2
    13    6   10 1
    14    7    8 1
    15    8    9 2
    16   10   11 1
    17   10   30 1
    18   10   31 1
    19   11   12 1
    20   12   16 1
    21   12   13 2
    22   13   14 1
    23   14   15 2
    24   15   16 1
    25   15   17 1
    26   17   18 1
    27   18   19 1
    28   18   20 1
    29   18   32 1
    30   19   33 1
    31   19   34 1
    32   19   35 1
    33   20   36 1
    34   20   37 1
    35   20   38 1
    36   21   22 1
    37   22   23 1
    38   22   24 1
    39   24   25 2
    40   24   26 1
@<TRIPOS>MOLECULE
ZINC33352624
   43    46     0     0     0
SMALL
USER_CHARGES

@<TRIPOS>ATOM
      1 C1          1.9145    0.1926   -3.6931 C.ar      1 <0>        -0.1072
      2 C2          2.9629    0.8779   -3.1103 C.ar      1 <0>        -0.0892
      3 C3          2.7993    1.4642   -1.8625 C.ar      1 <0>         0.1651
      4 C4          1.5816    1.3601   -1.2037 C.ar      1 <0>        -0.0686
      5 C5          0.5363    0.6734   -1.7915 C.ar      1 <0>        -0.0817
      6 C6          0.7029    0.0902   -3.0354 C.ar      1 <0>        -0.0973
      7 Br1        -1.1226    0.5301   -0.8953 Br        1 <0>        -0.0558
      8 N1          3.8613    2.1594   -1.2690 N.am      1 <0>        -0.5510
      9 C7          4.9767    1.4927   -0.9003 C.2       1 <0>         0.5588
     10 O1          5.0767    0.2917   -1.0753 O.2       1 <0>        -0.5027
     11 C8          6.0659    2.2611   -0.2819 C.2       1 <0>        -0.2496
     12 C9          7.2534    1.6388    0.1260 C.2       1 <0>         0.0984
     13 C10         7.3501    0.2502    0.1170 C.2       1 <0>        -0.0618
     14 C11         8.4592   -0.4916   -0.2896 C.2       1 <0>        -0.1027
     15 C12         8.1239   -1.8298   -0.1354 C.2       1 <0>        -0.3049
     16 C13         6.8321   -1.8727    0.3562 C.2       1 <0>         0.3191
     17 O2          6.3866   -0.6167    0.5066 O.3       1 <0>        -0.1449
     18 N2          6.1245   -3.0129    0.6478 N.pl3     1 <0>        -0.5923
     19 C14         6.6769   -4.3440    0.3506 C.3       1 <0>         0.1025
     20 C15         6.5660   -5.2063    1.6132 C.3       1 <0>         0.0456
     21 O3          5.2191   -5.1701    2.0911 O.3       1 <0>        -0.3789
     22 C16         4.7726   -3.8704    2.4850 C.3       1 <0>         0.0481
     23 C17         4.7940   -2.9398    1.2722 C.3       1 <0>         0.0864
     24 C18         5.8712    3.6577   -0.1134 C.2       1 <0>         0.4943
     25 O4          6.8346    4.4198    0.4480 O.3       1 <0>        -0.6402
     26 N3          4.7337    4.2029   -0.5139 N.2       1 <0>        -0.6636
     27 C19         3.7654    3.4851   -1.0756 C.2       1 <0>         0.6666
     28 O5          2.7458    4.0535   -1.4257 O.2       1 <0>        -0.5648
     29 H1          2.0402   -0.2597   -4.6657 H         1 <0>         0.1337
     30 H2          3.9092    0.9571   -3.6247 H         1 <0>         0.1264
     31 H3          1.4515    1.8149   -0.2328 H         1 <0>         0.1323
     32 H4         -0.1153   -0.4458   -3.4934 H         1 <0>         0.1320
     33 H5          8.0935    2.2366    0.4474 H         1 <0>         0.1708
     34 H6          9.3975   -0.1004   -0.6542 H         1 <0>         0.1539
     35 H7          8.7536   -2.6785   -0.3583 H         1 <0>         0.1451
     36 H8          6.1105   -4.8041   -0.4591 H         1 <0>         0.0780
     37 H9          7.7234   -4.2508    0.0605 H         1 <0>         0.0967
     38 H10         6.8411   -6.2343    1.3772 H         1 <0>         0.1086
     39 H11         7.2351   -4.8165    2.3802 H         1 <0>         0.0584
     40 H12         3.7574   -3.9373    2.8763 H         1 <0>         0.1088
     41 H13         5.4352   -3.4757    3.2552 H         1 <0>         0.0571
     42 H14         4.5943   -1.9171    1.5921 H         1 <0>         0.0939
     43 H15         4.0349   -3.2561    0.5569 H         1 <0>         0.0765
@<TRIPOS>BOND
     1    1    6 ar
     2    1    2 ar
     3    1   29 1
     4    2    3 ar
     5    2   30 1
     6    3    4 ar
     7    3    8 1
     8    4    5 ar
     9    4   31 1
    10    5    6 ar
    11    5    7 1
    12    6   32 1
    13    8   27 am
    14    8    9 am
    15    9   10 2
    16    9   11 1
    17   11   12 2
    18   11   24 1
    19   12   13 1
    20   12   33 1
    21   13   17 1
    22   13   14 2
    23   14   15 1
    24   14   34 1
    25   15   16 2
    26   15   35 1
    27   16   17 1
    28   16   18 1
    29   18   23 1
    30   18   19 1
    31   19   20 1
    32   19   36 1
    33   19   37 1
    34   20   21 1
    35   20   38 1
    36   20   39 1
    37   21   22 1
    38   22   23 1
    39   22   40 1
    40   22   41 1
    41   23   42 1
    42   23   43 1
    43   24   25 1
    44   24   26 2
    45   26   27 1
    46   27   28 2
@<TRIPOS>MOLECULE
ZINC03830207
   45    47     0     0     0
SMALL
USER_CHARGES
6-(azepan-1-ylmethyleneamino)-3,3-dimethyl-7-oxo-4-thia-1-azabicyclo[3.2.0]heptane-2-carboxylic acid
@<TRIPOS>ATOM
      1 C1         -0.7100    5.3058    1.0190 C.3       1 <0>        -0.1621
      2 C2         -0.5693    5.2729   -0.5042 C.3       1 <0>        -0.0110
      3 C3          0.8213    4.7205   -0.9413 C.3       1 <0>         0.0442
      4 H1          1.0011    4.9774   -1.9852 H         1 <0>         0.1217
      5 N1          0.8494    3.2643   -0.7868 N.am      1 <0>        -0.5344
      6 C4         -0.4154    2.5726   -1.1162 C.3       1 <0>         0.1229
      7 H2         -0.4065    1.8491   -1.9314 H         1 <0>         0.1808
      8 S1         -1.6245    3.9547   -1.2583 S.3       1 <0>        -0.2822
      9 C5         -0.2967    2.0218    0.3058 C.3       1 <0>         0.0330
     10 H3         -0.1992    0.9367    0.3403 H         1 <0>         0.1628
     11 C6          1.0202    2.7431    0.4509 C.2       1 <0>         0.5077
     12 O1          1.8709    2.8228    1.3117 O.2       1 <0>        -0.3502
     13 C7         -2.1894    1.7820    1.8490 C.cat     1 <0>         0.4823
     14 N2         -3.1185    2.3599    2.6737 N.pl3     1 <0>        -0.5439
     15 C8         -3.1169    3.7984    2.8189 C.3       1 <0>         0.0637
     16 C9         -2.1797    4.2088    3.9741 C.3       1 <0>        -0.1445
     17 C10        -2.7705    3.8341    5.2680 C.3       1 <0>        -0.1280
     18 C11        -2.9704    2.3335    5.4566 C.3       1 <0>        -0.1240
     19 C12        -4.2865    1.9233    4.8432 C.3       1 <0>        -0.1364
     20 C13        -4.0758    1.4876    3.3817 C.3       1 <0>         0.0982
     21 C14         1.8957    5.3359   -0.0823 C.2       1 <0>         0.4666
     22 O2          2.0078    5.0051    1.0744 O.co2     1 <0>        -0.6012
     23 C15        -0.8509    6.6446   -1.1207 C.3       1 <0>        -0.1234
     24 H4          0.0630    5.9477    1.4416 H         1 <0>         0.1238
     25 H5         -1.6922    5.6965    1.2849 H         1 <0>         0.0741
     26 H6         -0.6010    4.2964    1.4159 H         1 <0>         0.0617
     27 H7         -2.1680    0.7091    1.7278 H         1 <0>         0.2308
     28 H8         -2.7669    4.2562    1.8937 H         1 <0>         0.0879
     29 H9         -4.1285    4.1425    3.0337 H         1 <0>         0.1182
     30 H10        -2.0232    5.2872    3.9476 H         1 <0>         0.0986
     31 H11        -1.2220    3.7022    3.8545 H         1 <0>         0.0721
     32 H12        -3.7382    4.3268    5.3622 H         1 <0>         0.0698
     33 H13        -2.1189    4.1990    6.0620 H         1 <0>         0.0745
     34 H14        -2.9763    2.0983    6.5209 H         1 <0>         0.0780
     35 H15        -2.1582    1.7939    4.9694 H         1 <0>         0.0639
     36 H16        -4.9774    2.7657    4.8733 H         1 <0>         0.0795
     37 H17        -4.7046    1.0924    5.4113 H         1 <0>         0.0951
     38 H18        -5.0334    1.5178    2.8619 H         1 <0>         0.0976
     39 H19        -3.6997    0.4647    3.3680 H         1 <0>         0.1027
     40 H20        -0.8396    6.5635   -2.2077 H         1 <0>         0.0796
     41 H21        -1.8290    6.9965   -0.7928 H         1 <0>         0.0684
     42 H22        -0.0847    7.3508   -0.8011 H         1 <0>         0.0935
     43 N3         -1.3411    2.5915    1.2251 N.pl3     1 <0>        -0.6353
     44 H23        -1.3985    3.6062    1.3706 H         1 <0>         0.4473
     45 O3          2.7281    6.2517   -0.6021 O.co2     1 <0>        -0.7240
@<TRIPOS>BOND
     1    1    2 1
     2    1   24 1
     3    1   25 1
     4    1   26 1
     5    2    8 1
     6    2    3 1
     7    2   23 1
     8    3    4 1
     9    3    5 1
    10    3   21 1
    11    5   11 am
    12    5    6 1
    13    6    7 1
    14    6    8 1
    15    6    9 1
    16    9   10 1
    17    9   11 1
    18    9   43 1
    19   11   12 2
    20   13   14 1
    21   13   27 1
    22   13   43 2
    23   14   20 1
    24   14   15 1
    25   15   16 1
    26   15   28 1
    27   15   29 1
    28   16   17 1
    29   16   30 1
    30   16   31 1
    31   17   18 1
    32   17   32 1
    33   17   33 1
    34   18   19 1
    35   18   34 1
    36   18   35 1
    37   19   20 1
    38   19   36 1
    39   19   37 1
    40   20   38 1
    41   20   39 1
    42   21   22 2
    43   21   45 1
    44   23   40 1
    45   23   41 1
    46   23   42 1
    47   43   44 1
@<TRIPOS>MOLECULE
ZINC25063110
   43    46     0     0     0
SMALL
USER_CHARGES
(2R)-N-[4-(2-oxopyrrolidin-1-yl)phenyl]-2,3-dihydro-1,4-benzodioxine-2-carboxamide
@<TRIPOS>ATOM
      1 C1         -5.6463    1.9744    2.6310 C.ar      1 <0>        -0.1142
      2 C2         -6.5317    2.5113    1.7148 C.ar      1 <0>        -0.1114
      3 C3         -6.2494    3.7175    1.1024 C.ar      1 <0>        -0.1098
      4 C4         -5.0770    4.3935    1.4063 C.ar      1 <0>         0.0519
      5 C5         -4.1861    3.8529    2.3257 C.ar      1 <0>         0.0433
      6 C6         -4.4780    2.6444    2.9407 C.ar      1 <0>        -0.1101
      7 O1         -3.0278    4.4973    2.6351 O.3       1 <0>        -0.2991
      8 C7         -2.9512    5.8844    2.2889 C.3       1 <0>         0.0345
      9 C8         -3.4632    6.0496    0.8515 C.3       1 <0>         0.0371
     10 H1         -2.8894    5.4505    0.1291 H         1 <0>         0.1174
     11 O2         -4.8164    5.5845    0.8012 O.3       1 <0>        -0.2831
     12 C9         -3.4105    7.5031    0.4571 C.2       1 <0>         0.5251
     13 O3         -4.4371    8.1068    0.2276 O.2       1 <0>        -0.4919
     14 N1         -2.2225    8.1322    0.3595 N.am      1 <0>        -0.6775
     15 C10        -2.1661    9.4552   -0.0971 C.ar      1 <0>         0.1200
     16 C11        -1.0902    9.8791   -0.8660 C.ar      1 <0>        -0.1098
     17 C12        -1.0369   11.1816   -1.3201 C.ar      1 <0>        -0.1382
     18 C13        -2.0541   12.0709   -0.9990 C.ar      1 <0>         0.1538
     19 C14        -3.1273   11.6485   -0.2257 C.ar      1 <0>        -0.1390
     20 C15        -3.1832   10.3445    0.2240 C.ar      1 <0>        -0.0919
     21 N2         -1.9972   13.3942   -1.4549 N.am      1 <0>        -0.5603
     22 C16        -2.9554   14.4409   -1.0805 C.3       1 <0>         0.0880
     23 C17        -2.7688   15.5633   -2.1255 C.3       1 <0>        -0.1329
     24 C18        -1.3087   15.3324   -2.5789 C.3       1 <0>        -0.1521
     25 C19        -1.0546   13.8699   -2.2869 C.2       1 <0>         0.5189
     26 O4         -0.1357   13.2204   -2.7396 O.2       1 <0>        -0.5097
     27 H2         -5.8702    1.0321    3.1087 H         1 <0>         0.1349
     28 H3         -7.4455    1.9869    1.4772 H         1 <0>         0.1352
     29 H4         -6.9424    4.1343    0.3866 H         1 <0>         0.1372
     30 H5         -3.7898    2.2248    3.6595 H         1 <0>         0.1368
     31 H6         -3.5737    6.4700    2.9813 H         1 <0>         0.0883
     32 H7         -1.9069    6.2228    2.3592 H         1 <0>         0.1297
     33 H8         -1.2973    7.6067    0.6384 H         1 <0>         0.4363
     34 H9         -0.2969    9.1886   -1.1120 H         1 <0>         0.1323
     35 H10        -0.2021   11.5102   -1.9212 H         1 <0>         0.1601
     36 H11        -3.9182   12.3402    0.0243 H         1 <0>         0.1297
     37 H12        -4.0177   10.0161    0.8257 H         1 <0>         0.1423
     38 H13        -3.9758   14.0310   -1.1087 H         1 <0>         0.0876
     39 H14        -2.7312   14.7967   -0.0641 H         1 <0>         0.0823
     40 H15        -3.4998   15.4337   -2.9372 H         1 <0>         0.0871
     41 H16        -2.9235   16.5408   -1.6453 H         1 <0>         0.0979
     42 H17        -1.2173   15.5606   -3.6511 H         1 <0>         0.1105
     43 H18        -0.6384   15.9897   -2.0056 H         1 <0>         0.1128
@<TRIPOS>BOND
     1    1    6 ar
     2    1    2 ar
     3    1   27 1
     4    2    3 ar
     5    2   28 1
     6    3    4 ar
     7    3   29 1
     8    4   11 1
     9    4    5 ar
    10    5    6 ar
    11    5    7 1
    12    6   30 1
    13    7    8 1
    14    8    9 1
    15    8   31 1
    16    8   32 1
    17    9   10 1
    18    9   11 1
    19    9   12 1
    20   12   13 2
    21   12   14 am
    22   14   15 1
    23   14   33 1
    24   15   20 ar
    25   15   16 ar
    26   16   17 ar
    27   16   34 1
    28   17   18 ar
    29   17   35 1
    30   18   19 ar
    31   18   21 1
    32   19   20 ar
    33   19   36 1
    34   20   37 1
    35   21   25 am
    36   21   22 1
    37   22   23 1
    38   22   38 1
    39   22   39 1
    40   23   24 1
    41   23   40 1
    42   23   41 1
    43   24   25 1
    44   24   42 1
    45   24   43 1
    46   25   26 2
@<TRIPOS>MOLECULE
ZINC39449623
   37    39     0     0     0
SMALL
USER_CHARGES

@<TRIPOS>ATOM
      1 C1         -0.0173    1.4248    0.0099 C.3       1 <0>         0.0230
      2 O1          0.0021   -0.0041    0.0020 O.3       1 <0>        -0.3695
      3 C2         -1.2953   -0.6030    0.0112 C.3       1 <0>         0.3193
      4 H1         -1.9262   -0.1022    0.7455 H         1 <0>         0.0810
      5 C3         -1.1756   -2.0906    0.3610 C.3       1 <0>        -0.1672
      6 C4         -2.5078   -2.7617    0.1514 C.2       1 <0>         0.3941
      7 O2         -2.8106   -3.7224    0.8308 O.2       1 <0>        -0.4126
      8 C5         -3.4080   -2.2855   -0.8260 C.2       1 <0>        -0.0662
      9 C6         -3.0916   -1.1558   -1.5598 C.2       1 <0>         0.2635
     10 C7         -4.0241   -0.6648   -2.5814 C.ar      1 <0>         0.1617
     11 C8         -5.2340   -1.3686   -2.7736 C.ar      1 <0>        -0.1300
     12 C9         -6.1373   -0.9222   -3.7356 C.ar      1 <0>         0.0100
     13 C10        -5.7996    0.2109   -4.4715 C.ar      1 <0>        -0.1404
     14 C11        -4.5845    0.8527   -4.2241 C.ar      1 <0>         0.1265
     15 N1         -3.7500    0.4105   -3.3105 N.ar      1 <0>        -0.4482
     16 S1         -6.8961    0.8289   -5.7046 S.3       1 <0>        -0.0666
     17 C12        -6.0353    2.2806   -6.3695 C.3       1 <0>        -0.1563
     18 C13        -5.5054   -2.5555   -1.9494 C.2       1 <0>         0.5474
     19 O3         -6.5427   -3.1749   -2.0978 O.2       1 <0>        -0.4798
     20 N2         -4.6075   -2.9576   -1.0315 N.am      1 <0>        -0.5091
     21 S2         -4.9419   -4.2971   -0.1172 S.3       1 <0>         0.1673
     22 C14        -5.8079   -3.6341    1.3323 C.3       1 <0>        -0.1803
     23 N3         -1.9030   -0.4910   -1.3238 N.pl3     1 <0>        -0.7227
     24 H2          1.0053    1.8021    0.0021 H         1 <0>         0.0973
     25 H3         -0.5445    1.7859   -0.8732 H         1 <0>         0.0493
     26 H4         -0.5275    1.7763    0.9067 H         1 <0>         0.0509
     27 H5         -0.4286   -2.5564   -0.2817 H         1 <0>         0.1199
     28 H6         -0.8754   -2.1960    1.4036 H         1 <0>         0.1209
     29 H7         -7.0703   -1.4390   -3.9056 H         1 <0>         0.1642
     30 H8         -4.3245    1.7309   -4.7966 H         1 <0>         0.1701
     31 H9         -5.8684    3.0020   -5.5696 H         1 <0>         0.0896
     32 H10        -5.0768    1.9744   -6.7885 H         1 <0>         0.0901
     33 H11        -6.6436    2.7378   -7.1499 H         1 <0>         0.1189
     34 H12        -5.1575   -2.9323    1.8545 H         1 <0>         0.0747
     35 H13        -6.7135   -3.1198    1.0107 H         1 <0>         0.0756
     36 H14        -6.0729   -4.4517    2.0027 H         1 <0>         0.1143
     37 H15        -1.4804    0.0354   -2.0203 H         1 <0>         0.4190
@<TRIPOS>BOND
     1    1    2 1
     2    1   24 1
     3    1   25 1
     4    1   26 1
     5    2    3 1
     6    3    4 1
     7    3   23 1
     8    3    5 1
     9    5    6 1
    10    5   27 1
    11    5   28 1
    12    6    7 2
    13    6    8 1
    14    8   20 1
    15    8    9 2
    16    9   10 1
    17    9   23 1
    18   10   15 ar
    19   10   11 ar
    20   11   12 ar
    21   11   18 1
    22   12   13 ar
    23   12   29 1
    24   13   14 ar
    25   13   16 1
    26   14   15 ar
    27   14   30 1
    28   16   17 1
    29   17   31 1
    30   17   32 1
    31   17   33 1
    32   18   19 2
    33   18   20 am
    34   20   21 1
    35   21   22 1
    36   22   34 1
    37   22   35 1
    38   22   36 1
    39   23   37 1
@<TRIPOS>MOLECULE
ZINC56939628
   34    36     0     0     0
SMALL
USER_CHARGES

@<TRIPOS>ATOM
      1 C1         -0.0169    1.3844   -0.0046 C.ar      1 <0>        -0.1440
      2 C2          1.1704    2.0900   -0.0121 C.ar      1 <0>        -0.0803
      3 C3          2.3781    1.4144   -0.0135 C.ar      1 <0>        -0.0585
      4 C4          2.3998    0.0308   -0.0070 C.ar      1 <0>        -0.0811
      5 C5          1.2154   -0.6795    0.0006 C.ar      1 <0>        -0.1411
      6 C6          0.0021   -0.0041    0.0020 C.ar      1 <0>         0.1712
      7 N1         -1.1998   -0.7216    0.0101 N.am      1 <0>        -0.5539
      8 C7         -1.2928   -2.1823   -0.0966 C.3       1 <0>         0.1077
      9 C8         -2.7151   -2.5412    0.3879 C.3       1 <0>        -0.1202
     10 H1         -3.1260   -3.3700   -0.1885 H         1 <0>         0.1438
     11 C9         -3.4857   -1.2317    0.1009 C.3       1 <0>        -0.1449
     12 C10        -2.4166   -0.1616    0.1224 C.2       1 <0>         0.5158
     13 O1         -2.6270    1.0286    0.2236 O.2       1 <0>        -0.4981
     14 C11        -2.7189   -2.8583    1.8612 C.2       1 <0>         0.5133
     15 O2         -1.6860   -2.8093    2.4947 O.2       1 <0>        -0.4453
     16 N2         -3.8703   -3.1963    2.4747 N.am      1 <0>        -0.6169
     17 C12        -3.8738   -3.4878    3.8287 C.2       1 <0>         0.2801
     18 N3         -2.8558   -3.4796    4.6680 N.2       1 <0>        -0.5231
     19 C13        -3.0100   -3.7797    5.9345 C.2       1 <0>         0.1567
     20 C14        -4.2970   -4.1041    6.3381 C.2       1 <0>        -0.1993
     21 S1         -5.1789   -3.9291    4.7952 S.3       1 <0>         0.2202
     22 C15        -4.7840   -4.4725    7.6334 C.1       1 <0>         0.2992
     23 N4         -5.1703   -4.7648    8.6609 N.1       1 <0>        -0.3888
     24 Cl1         3.8687    2.3043   -0.0241 Cl        1 <0>        -0.0691
     25 H2         -0.9591    1.9121    0.0007 H         1 <0>         0.1626
     26 H3          1.1562    3.1699   -0.0172 H         1 <0>         0.1386
     27 H4          3.3437   -0.4941   -0.0081 H         1 <0>         0.1392
     28 H5          1.2328   -1.7594    0.0050 H         1 <0>         0.1362
     29 H6         -1.1573   -2.4943   -1.1322 H         1 <0>         0.1013
     30 H7         -0.5464   -2.6555    0.5414 H         1 <0>         0.1088
     31 H8         -3.9652   -1.2777   -0.8769 H         1 <0>         0.1326
     32 H9         -4.2242   -1.0450    0.8806 H         1 <0>         0.1129
     33 H10        -4.6965   -3.2355    1.9681 H         1 <0>         0.4317
     34 H11        -2.1804   -3.7750    6.6260 H         1 <0>         0.1923
@<TRIPOS>BOND
     1    1    6 ar
     2    1    2 ar
     3    1   25 1
     4    2    3 ar
     5    2   26 1
     6    3    4 ar
     7    3   24 1
     8    4    5 ar
     9    4   27 1
    10    5    6 ar
    11    5   28 1
    12    6    7 1
    13    7   12 am
    14    7    8 1
    15    8    9 1
    16    8   29 1
    17    8   30 1
    18    9   10 1
    19    9   11 1
    20    9   14 1
    21   11   12 1
    22   11   31 1
    23   11   32 1
    24   12   13 2
    25   14   15 2
    26   14   16 am
    27   16   17 1
    28   16   33 1
    29   17   21 1
    30   17   18 2
    31   18   19 1
    32   19   20 2
    33   19   34 1
    34   20   21 1
    35   20   22 1
    36   22   23 3
@<TRIPOS>MOLECULE
ZINC49545420
   43    46     0     0     0
SMALL
USER_CHARGES

@<TRIPOS>ATOM
      1 C1          0.3233    1.3493    0.0531 C.3       1 <0>        -0.0843
      2 C2          0.3338   -0.1543   -0.0470 C.2       1 <0>         0.1107
      3 C3          0.0854   -0.8971   -1.2155 C.2       1 <0>        -0.2578
      4 C4          0.1917   -2.2242   -0.8963 C.2       1 <0>         0.3590
      5 N1          0.4932   -2.2826    0.4514 N.pl3     1 <0>        -0.3211
      6 N2          0.5801   -0.9767    0.9339 N.2       1 <0>        -0.2651
      7 C5          0.6827   -3.4503    1.2015 C.ar      1 <0>         0.1601
      8 C6         -0.0604   -4.5883    0.9169 C.ar      1 <0>        -0.1095
      9 C7          0.1291   -5.7383    1.6580 C.ar      1 <0>        -0.1053
     10 C8          1.0574   -5.7571    2.6827 C.ar      1 <0>        -0.1207
     11 C9          1.7987   -4.6253    2.9689 C.ar      1 <0>        -0.1035
     12 C10         1.6182   -3.4741    2.2275 C.ar      1 <0>        -0.1129
     13 N3          0.0660   -3.3384   -1.6356 N.2       1 <0>        -0.6280
     14 C11        -0.1872   -3.6125   -2.8314 C.2       1 <0>         0.4699
     15 C12        -0.5231   -2.7175   -3.9583 C.3       1 <0>        -0.1139
     16 S1          0.3969   -1.1728   -3.9329 S.3       1 <0>        -0.1613
     17 C13        -0.2356   -0.2488   -2.5283 C.3       1 <0>         0.0909
     18 H1         -1.3180   -0.1622   -2.6225 H         1 <0>         0.1052
     19 C14         0.3632    1.1341   -2.5469 C.2       1 <0>        -0.2411
     20 C15        -0.3496    2.3435   -2.4611 C.2       1 <0>         0.1280
     21 N4          0.5085    3.3228   -2.5096 N.2       1 <0>        -0.3123
     22 O1          1.8035    2.7620   -2.6287 O.3       1 <0>        -0.0755
     23 C16         1.6744    1.4265   -2.6427 C.2       1 <0>         0.1089
     24 C17         2.7989    0.4290   -2.7505 C.3       1 <0>        -0.0929
     25 C18        -1.8449    2.4824   -2.3354 C.3       1 <0>        -0.0946
     26 O2         -0.1466   -4.9255   -3.1373 O.3       1 <0>        -0.4698
     27 H2          1.2822    1.7426   -0.2842 H         1 <0>         0.0746
     28 H3         -0.4742    1.7496   -0.5730 H         1 <0>         0.0862
     29 H4          0.1541    1.6433    1.0890 H         1 <0>         0.0760
     30 H5         -0.7861   -4.5741    0.1172 H         1 <0>         0.1320
     31 H6         -0.4486   -6.6237    1.4371 H         1 <0>         0.1311
     32 H7          1.2035   -6.6574    3.2610 H         1 <0>         0.1285
     33 H8          2.5227   -4.6430    3.7701 H         1 <0>         0.1316
     34 H9          2.2009   -2.5920    2.4483 H         1 <0>         0.1311
     35 H10        -0.3108   -3.2363   -4.8931 H         1 <0>         0.1526
     36 H11        -1.5887   -2.4912   -3.9204 H         1 <0>         0.1270
     37 H12         2.9293    0.1399   -3.7934 H         1 <0>         0.1020
     38 H13         3.7202    0.8786   -2.3801 H         1 <0>         0.0872
     39 H14         2.5604   -0.4530   -2.1561 H         1 <0>         0.0962
     40 H15        -2.1136    2.5810   -1.2837 H         1 <0>         0.0939
     41 H16        -2.1745    3.3678   -2.8791 H         1 <0>         0.0901
     42 H17        -2.3282    1.5990   -2.7527 H         1 <0>         0.0868
     43 H18         0.0748   -5.4970   -2.3893 H         1 <0>         0.4100
@<TRIPOS>BOND
     1    1    2 1
     2    1   27 1
     3    1   28 1
     4    1   29 1
     5    2    6 2
     6    2    3 1
     7    3   17 1
     8    3    4 2
     9    4    5 1
    10    4   13 1
    11    5    6 1
    12    5    7 1
    13    7   12 ar
    14    7    8 ar
    15    8    9 ar
    16    8   30 1
    17    9   10 ar
    18    9   31 1
    19   10   11 ar
    20   10   32 1
    21   11   12 ar
    22   11   33 1
    23   12   34 1
    24   13   14 2
    25   14   15 1
    26   14   26 1
    27   15   16 1
    28   15   35 1
    29   15   36 1
    30   16   17 1
    31   17   18 1
    32   17   19 1
    33   19   23 2
    34   19   20 1
    35   20   21 2
    36   20   25 1
    37   21   22 1
    38   22   23 1
    39   23   24 1
    40   24   37 1
    41   24   38 1
    42   24   39 1
    43   25   40 1
    44   25   41 1
    45   25   42 1
    46   26   43 1
@<TRIPOS>MOLECULE
ZINC66818616
   40    42     0     0     0
SMALL
USER_CHARGES

@<TRIPOS>ATOM
      1 C1         -0.6023    1.6425   -0.5341 C.3       1 <0>        -0.0876
      2 C2         -0.3953    0.1533   -0.4317 C.ar      1 <0>         0.3849
      3 N1         -0.4477   -0.5773   -1.5271 N.ar      1 <0>        -0.5750
      4 C3         -0.2693   -1.8943   -1.4745 C.ar      1 <0>         0.4569
      5 C4         -0.0248   -2.4942   -0.2383 C.ar      1 <0>        -0.2879
      6 C5          0.0215   -1.6882    0.8843 C.ar      1 <0>         0.2564
      7 N2         -0.1616   -0.3809    0.7498 N.ar      1 <0>        -0.5563
      8 Cl1         0.3219   -2.3772    2.4491 Cl        1 <0>        -0.0137
      9 N3         -0.3257   -2.6587   -2.6288 N.pl3     1 <0>        -0.7011
     10 C6         -0.1275   -4.1084   -2.5576 C.3       1 <0>         0.1500
     11 C7          1.3702   -4.4208   -2.5975 C.3       1 <0>        -0.1536
     12 C8          1.5750   -5.9351   -2.4881 C.3       1 <0>         0.1211
     13 N4          0.7926   -6.5954   -3.5419 N.pl3     1 <0>        -0.6002
     14 C9         -0.6416   -6.2951   -3.6502 C.3       1 <0>         0.1246
     15 C10        -0.8215   -4.7769   -3.7466 C.3       1 <0>        -0.1423
     16 C11         1.3960   -7.4843   -4.4173 C.ar      1 <0>         0.4311
     17 C12         2.6918   -7.9283   -4.1608 C.ar      1 <0>        -0.2391
     18 C13         3.2849   -8.8063   -5.0275 C.ar      1 <0>         0.0168
     19 C14         2.5596   -9.2302   -6.1518 C.ar      1 <0>        -0.1487
     20 C15         1.2656   -8.7443   -6.3459 C.ar      1 <0>         0.2107
     21 N5          0.7303   -7.9044   -5.4840 N.ar      1 <0>        -0.5410
     22 C16         3.1389  -10.1476   -7.0864 C.1       1 <0>         0.2613
     23 N6          3.5984  -10.8753   -7.8278 N.1       1 <0>        -0.4212
     24 H1          0.3573    2.1323   -0.6994 H         1 <0>         0.0911
     25 H2         -1.2697    1.8601   -1.3681 H         1 <0>         0.0896
     26 H3         -1.0444    2.0124    0.3910 H         1 <0>         0.0908
     27 H4          0.1242   -3.5610   -0.1604 H         1 <0>         0.1511
     28 H5         -0.4964   -2.2339   -3.4839 H         1 <0>         0.4121
     29 H6         -0.5528   -4.4880   -1.6286 H         1 <0>         0.0892
     30 H7          1.7914   -4.0637   -3.5372 H         1 <0>         0.0775
     31 H8          1.8675   -3.9253   -1.7637 H         1 <0>         0.0836
     32 H9          2.6315   -6.1710   -2.6151 H         1 <0>         0.0943
     33 H10         1.2363   -6.2799   -1.5111 H         1 <0>         0.0771
     34 H11        -1.0476   -6.7687   -4.5441 H         1 <0>         0.1082
     35 H12        -1.1610   -6.6694   -2.7680 H         1 <0>         0.0707
     36 H13        -1.8842   -4.5347   -3.7307 H         1 <0>         0.0870
     37 H14        -0.3796   -4.4164   -4.6755 H         1 <0>         0.0783
     38 H15         3.2233   -7.5826   -3.2865 H         1 <0>         0.1432
     39 H16         4.2883   -9.1644   -4.8503 H         1 <0>         0.1430
     40 H17         0.6973   -9.0627   -7.2074 H         1 <0>         0.1672
@<TRIPOS>BOND
     1    1    2 1
     2    1   24 1
     3    1   25 1
     4    1   26 1
     5    2    7 ar
     6    2    3 ar
     7    3    4 ar
     8    4    5 ar
     9    4    9 1
    10    5    6 ar
    11    5   27 1
    12    6    7 ar
    13    6    8 1
    14    9   10 1
    15    9   28 1
    16   10   15 1
    17   10   11 1
    18   10   29 1
    19   11   12 1
    20   11   30 1
    21   11   31 1
    22   12   13 1
    23   12   32 1
    24   12   33 1
    25   13   14 1
    26   13   16 1
    27   14   15 1
    28   14   34 1
    29   14   35 1
    30   15   36 1
    31   15   37 1
    32   16   21 ar
    33   16   17 ar
    34   17   18 ar
    35   17   38 1
    36   18   19 ar
    37   18   39 1
    38   19   20 ar
    39   19   22 1
    40   20   21 ar
    41   20   40 1
    42   22   23 3
@<TRIPOS>MOLECULE
ZINC20534625
   26    28     0     0     0
SMALL
USER_CHARGES
4-bromo-N-[5-(4-pyridyl)-1,3,4-thiadiazol-2-yl]thiophene-2-carboxamide
@<TRIPOS>ATOM
      1 C1          3.0018   -8.7142   -0.0683 C.ar      1 <0>        -0.1715
      2 C2          3.3817  -10.0398   -0.0848 C.ar      1 <0>         0.1022
      3 N1          4.6568  -10.3793   -0.0995 N.ar      1 <0>        -0.4998
      4 C3          5.6215   -9.4788   -0.1044 C.ar      1 <0>         0.1010
      5 C4          5.3319   -8.1306   -0.0941 C.ar      1 <0>        -0.1545
      6 C5          3.9920   -7.7243   -0.0784 C.ar      1 <0>         0.0930
      7 C6          3.6331   -6.2909   -0.0664 C.2       1 <0>        -0.0588
      8 N2          4.4136   -5.2173   -0.0688 N.2       1 <0>        -0.1996
      9 N3          3.9083   -4.0605   -0.0629 N.2       1 <0>        -0.3756
     10 C7          2.5977   -3.8691   -0.0430 C.2       1 <0>         0.3478
     11 S1          2.0234   -5.5107   -0.0458 S.3       1 <0>        -0.0460
     12 N4          1.8790   -2.6824   -0.0298 N.2       1 <0>        -0.6381
     13 C8          2.5282   -1.5014   -0.0301 C.2       1 <0>         0.5408
     14 O1          3.7450   -1.4758   -0.0421 O.3       1 <0>        -0.5408
     15 C9          1.7693   -0.2482   -0.0162 C.2       1 <0>        -0.1402
     16 C10         2.2373    1.0570   -0.0136 C.2       1 <0>        -0.1106
     17 C11         1.2976    2.0580    0.0007 C.2       1 <0>        -0.1249
     18 C12        -0.0214    1.7293    0.0116 C.2       1 <0>        -0.2063
     19 S2          0.0021   -0.0041    0.0020 S.3       1 <0>         0.2066
     20 Br1         1.8318    3.8719    0.0047 Br        1 <0>        -0.0525
     21 H1          1.9564   -8.4437   -0.0519 H         1 <0>         0.1344
     22 H2          2.6253  -10.8107   -0.0817 H         1 <0>         0.1552
     23 H3          6.6518   -9.8022   -0.1162 H         1 <0>         0.1559
     24 H4          6.1265   -7.3992   -0.0985 H         1 <0>         0.1419
     25 H5          3.2947    1.2767   -0.0222 H         1 <0>         0.1495
     26 H6         -0.8769    2.3885    0.0194 H         1 <0>         0.1908
@<TRIPOS>BOND
     1    1    6 ar
     2    1    2 ar
     3    1   21 1
     4    2    3 ar
     5    2   22 1
     6    3    4 ar
     7    4    5 ar
     8    4   23 1
     9    5    6 ar
    10    5   24 1
    11    6    7 1
    12    7   11 1
    13    7    8 2
    14    8    9 1
    15    9   10 2
    16   10   11 1
    17   10   12 1
    18   12   13 2
    19   13   14 1
    20   13   15 1
    21   15   19 1
    22   15   16 2
    23   16   17 1
    24   16   25 1
    25   17   18 2
    26   17   20 1
    27   18   19 1
    28   18   26 1
@<TRIPOS>MOLECULE
ZINC27925392
   30    31     0     0     0
SMALL
USER_CHARGES

@<TRIPOS>ATOM
      1 C1         -0.0184    1.5028    0.0103 C.3       1 <0>        -0.0913
      2 C2          0.0021   -0.0041    0.0020 C.2       1 <0>         0.2471
      3 C3          0.0062   -0.7334   -1.1858 C.2       1 <0>        -0.4324
      4 S1          0.0327   -2.4008   -0.5469 S.3       1 <0>         0.0695
      5 C4          0.0358   -2.0227    1.0930 C.2       1 <0>         0.4179
      6 N1          0.0225   -0.6998    1.1078 N.2       1 <0>        -0.6607
      7 N2          0.0528   -2.8857    2.1652 N.2       1 <0>        -1.0102
      8 S2          0.0525   -2.2876    3.7095 S.o2      1 <0>         2.6366
      9 O1          1.2897   -1.6105    3.8830 O.2       1 <0>        -0.9972
     10 O2         -1.2008   -1.6442    3.8955 O.2       1 <0>        -0.9973
     11 C5          0.0767   -3.6689    4.8031 C.ar      1 <0>        -0.6154
     12 C6         -1.1109   -4.2305    5.2335 C.ar      1 <0>        -0.0151
     13 C7         -1.0924   -5.3143    6.0910 C.ar      1 <0>        -0.1159
     14 C8          0.1147   -5.8371    6.5186 C.ar      1 <0>        -0.0501
     15 C9          1.3029   -5.2749    6.0877 C.ar      1 <0>        -0.1160
     16 C10         1.2834   -4.1944    5.2260 C.ar      1 <0>        -0.0152
     17 Br1         0.1407   -7.3196    7.6923 Br        1 <0>        -0.0508
     18 C11        -0.0069   -0.2813   -2.5187 C.2       1 <0>         0.4477
     19 O3         -0.0247    0.9102   -2.7559 O.2       1 <0>        -0.5086
     20 C12         0.0011   -1.2751   -3.6515 C.3       1 <0>        -0.1903
     21 H1          1.0042    1.8801    0.0026 H         1 <0>         0.0759
     22 H2         -0.5455    1.8639   -0.8728 H         1 <0>         0.0896
     23 H3         -0.5286    1.8543    0.9071 H         1 <0>         0.0682
     24 H4         -2.0534   -3.8220    4.8999 H         1 <0>         0.1480
     25 H5         -2.0203   -5.7527    6.4275 H         1 <0>         0.1395
     26 H6          2.2456   -5.6828    6.4212 H         1 <0>         0.1395
     27 H7          2.2111   -3.7580    4.8863 H         1 <0>         0.1481
     28 H8          0.0173   -2.2871   -3.2470 H         1 <0>         0.0725
     29 H9         -0.8939   -1.1409   -4.2590 H         1 <0>         0.0832
     30 H10         0.8858   -1.1161   -4.2681 H         1 <0>         0.0832
@<TRIPOS>BOND
     1    1    2 1
     2    1   21 1
     3    1   22 1
     4    1   23 1
     5    2    6 1
     6    2    3 2
     7    3    4 1
     8    3   18 1
     9    4    5 1
    10    5    6 2
    11    5    7 1
    12    7    8 1
    13    8    9 2
    14    8   10 2
    15    8   11 1
    16   11   16 ar
    17   11   12 ar
    18   12   13 ar
    19   12   24 1
    20   13   14 ar
    21   13   25 1
    22   14   15 ar
    23   14   17 1
    24   15   16 ar
    25   15   26 1
    26   16   27 1
    27   18   19 2
    28   18   20 1
    29   20   28 1
    30   20   29 1
    31   20   30 1
@<TRIPOS>MOLECULE
ZINC07726340
   36    38     0     0     0
SMALL
USER_CHARGES

@<TRIPOS>ATOM
      1 C1         -0.0184    1.5028    0.0103 C.3       1 <0>        -0.0610
      2 C2          0.0021   -0.0041    0.0020 C.2       1 <0>         0.0559
      3 N1         -1.0136   -0.8277    0.0020 N.2       1 <0>        -0.5123
      4 C3         -0.8365   -2.1411   -0.0059 C.2       1 <0>         0.1520
      5 C4          0.4594   -2.5827   -0.0140 C.2       1 <0>        -0.2520
      6 S1          1.3372   -1.0280   -0.0168 S.3       1 <0>         0.0557
      7 C5         -1.9825   -3.0834   -0.0056 C.ar      1 <0>        -0.1500
      8 C6         -1.7552   -4.4587   -0.0078 C.ar      1 <0>        -0.0516
      9 C7         -2.8218   -5.3327   -0.0075 C.ar      1 <0>        -0.1842
     10 C8         -4.1226   -4.8433   -0.0050 C.ar      1 <0>         0.2937
     11 C9         -4.3515   -3.4725   -0.0028 C.ar      1 <0>        -0.2696
     12 C10        -3.2879   -2.5948    0.0027 C.ar      1 <0>        -0.0201
     13 N2         -5.2016   -5.7306   -0.0052 N.2       1 <0>        -1.0825
     14 S2         -6.7521   -5.1488   -0.0022 S.o2      1 <0>         2.5968
     15 O1         -6.9372   -4.4925    1.2445 O.2       1 <0>        -1.0225
     16 O2         -6.9403   -4.4882   -1.2462 O.2       1 <0>        -1.0224
     17 C11        -7.8312   -6.5417   -0.0032 C.ar      1 <0>        -0.5879
     18 C12        -8.2499   -7.0875   -1.2037 C.ar      1 <0>        -0.0253
     19 C13        -9.0947   -8.1780   -1.2119 C.ar      1 <0>        -0.0947
     20 C14        -9.5269   -8.7312   -0.0049 C.ar      1 <0>         0.0008
     21 C15        -9.1001   -8.1756    1.2029 C.ar      1 <0>        -0.0947
     22 C16        -8.2514   -7.0881    1.1964 C.ar      1 <0>        -0.0254
     23 C17       -10.4043   -9.8629   -0.0058 C.1       1 <0>         0.2600
     24 N3        -11.1004  -10.7607   -0.0064 N.1       1 <0>        -0.4194
     25 H1          1.0042    1.8801    0.0026 H         1 <0>         0.0801
     26 H2         -0.5455    1.8639   -0.8728 H         1 <0>         0.0875
     27 H3         -0.5286    1.8543    0.9071 H         1 <0>         0.0875
     28 H4          0.8440   -3.5919   -0.0211 H         1 <0>         0.1921
     29 H5         -0.7446   -4.8394   -0.0101 H         1 <0>         0.1088
     30 H6         -2.6462   -6.3983   -0.0095 H         1 <0>         0.1177
     31 H7         -5.3632   -3.0943   -0.0009 H         1 <0>         0.1006
     32 H8         -3.4662   -1.5297    0.0093 H         1 <0>         0.1135
     33 H9         -7.9148   -6.6586   -2.1366 H         1 <0>         0.1487
     34 H10        -9.4213   -8.6026   -2.1497 H         1 <0>         0.1377
     35 H11        -9.4307   -8.5986    2.1400 H         1 <0>         0.1377
     36 H12        -7.9172   -6.6599    2.1299 H         1 <0>         0.1488
@<TRIPOS>BOND
     1    1    2 1
     2    1   25 1
     3    1   26 1
     4    1   27 1
     5    2    6 1
     6    2    3 2
     7    3    4 1
     8    4    5 2
     9    4    7 1
    10    5    6 1
    11    5   28 1
    12    7   12 ar
    13    7    8 ar
    14    8    9 ar
    15    8   29 1
    16    9   10 ar
    17    9   30 1
    18   10   11 ar
    19   10   13 1
    20   11   12 ar
    21   11   31 1
    22   12   32 1
    23   13   14 1
    24   14   15 2
    25   14   16 2
    26   14   17 1
    27   17   22 ar
    28   17   18 ar
    29   18   19 ar
    30   18   33 1
    31   19   20 ar
    32   19   34 1
    33   20   21 ar
    34   20   23 1
    35   21   22 ar
    36   21   35 1
    37   22   36 1
    38   23   24 3
@<TRIPOS>MOLECULE
ZINC35483856
   39    41     0     0     0
SMALL
USER_CHARGES

@<TRIPOS>ATOM
      1 C1         -0.0844    1.5017   -0.0436 C.3       1 <0>        -0.1024
      2 C2         -0.0281   -0.0041   -0.0217 C.2       1 <0>         0.1724
      3 C3          0.0522   -0.8380   -1.1422 C.2       1 <0>        -0.7510
      4 C4          0.0829   -2.1191   -0.7068 C.2       1 <0>         0.2072
      5 N1          0.0240   -2.0961    0.6438 N.pl3     1 <0>        -0.3322
      6 N2         -0.0401   -0.7567    1.0491 N.2       1 <0>        -0.3023
      7 C5          0.0308   -3.2150    1.4894 C.ar      1 <0>         0.1461
      8 C6          0.8947   -4.2719    1.2367 C.ar      1 <0>        -0.0967
      9 C7          0.9000   -5.3728    2.0705 C.ar      1 <0>        -0.1319
     10 C8          0.0438   -5.4231    3.1578 C.ar      1 <0>         0.0959
     11 C9         -0.8190   -4.3700    3.4112 C.ar      1 <0>        -0.1360
     12 C10        -0.8224   -3.2644    2.5835 C.ar      1 <0>        -0.0789
     13 F1          0.0500   -6.5011    3.9721 F         1 <0>        -0.1362
     14 C11         0.1672   -3.3501   -1.5720 C.3       1 <0>        -0.1309
     15 S1          0.1038   -0.3131   -2.8234 S.o2      1 <0>         2.6425
     16 O1         -0.3729   -1.4011   -3.6033 O.2       1 <0>        -1.0283
     17 O2         -0.4957    0.9745   -2.8653 O.2       1 <0>        -1.0226
     18 N3          1.6974   -0.1065   -3.2232 N.2       1 <0>        -1.0780
     19 C12         2.0466    0.3116   -4.5111 C.ar      1 <0>         0.2793
     20 C13         1.0583    0.5594   -5.4537 C.ar      1 <0>        -0.2844
     21 C14         1.4070    0.9734   -6.7269 C.ar      1 <0>         0.1406
     22 C15         2.7405    1.1406   -7.0611 C.ar      1 <0>        -0.2361
     23 C16         3.7272    0.8940   -6.1242 C.ar      1 <0>        -0.0876
     24 C17         3.3846    0.4855   -4.8484 C.ar      1 <0>         0.0200
     25 F2          4.3490    0.2506   -3.9319 F         1 <0>        -0.1425
     26 F3          0.4458    1.2144   -7.6452 F         1 <0>        -0.1517
     27 H1          0.9282    1.9037   -0.0095 H         1 <0>         0.0868
     28 H2         -0.5765    1.8336   -0.9578 H         1 <0>         0.1157
     29 H3         -0.6457    1.8569    0.8206 H         1 <0>         0.0739
     30 H4          1.5621   -4.2333    0.3884 H         1 <0>         0.1451
     31 H5          1.5719   -6.1952    1.8742 H         1 <0>         0.1473
     32 H6         -1.4865   -4.4112    4.2593 H         1 <0>         0.1449
     33 H7         -1.4918   -2.4410    2.7844 H         1 <0>         0.1434
     34 H8          1.2098   -3.5496   -1.8195 H         1 <0>         0.0974
     35 H9         -0.2478   -4.2019   -1.0332 H         1 <0>         0.0752
     36 H10        -0.3996   -3.1891   -2.4891 H         1 <0>         0.1273
     37 H11         0.0182    0.4288   -5.1936 H         1 <0>         0.1175
     38 H12         3.0104    1.4639   -8.0556 H         1 <0>         0.1240
     39 H13         4.7663    1.0246   -6.3880 H         1 <0>         0.1275
@<TRIPOS>BOND
     1    1    2 1
     2    1   27 1
     3    1   28 1
     4    1   29 1
     5    2    6 2
     6    2    3 1
     7    3    4 2
     8    3   15 1
     9    4    5 1
    10    4   14 1
    11    5    6 1
    12    5    7 1
    13    7   12 ar
    14    7    8 ar
    15    8    9 ar
    16    8   30 1
    17    9   10 ar
    18    9   31 1
    19   10   11 ar
    20   10   13 1
    21   11   12 ar
    22   11   32 1
    23   12   33 1
    24   14   34 1
    25   14   35 1
    26   14   36 1
    27   15   16 2
    28   15   17 2
    29   15   18 1
    30   18   19 1
    31   19   24 ar
    32   19   20 ar
    33   20   21 ar
    34   20   37 1
    35   21   22 ar
    36   21   26 1
    37   22   23 ar
    38   22   38 1
    39   23   24 ar
    40   23   39 1
    41   24   25 1
@<TRIPOS>MOLECULE
ZINC66588396
   38    39     0     0     0
SMALL
USER_CHARGES

@<TRIPOS>ATOM
      1 C1         -0.0184    1.5028    0.0103 C.3       1 <0>        -0.1168
      2 C2          0.0021   -0.0041    0.0020 C.ar      1 <0>        -0.0441
      3 C3          0.0057   -0.6888   -1.1991 C.ar      1 <0>        -0.1558
      4 C4          0.0245   -2.0707   -1.2067 C.ar      1 <0>        -0.0218
      5 C5          0.0400   -2.7685   -0.0132 C.ar      1 <0>        -0.6329
      6 C6          0.0373   -2.0840    1.1875 C.ar      1 <0>         0.0317
      7 C7          0.0229   -0.7015    1.1951 C.ar      1 <0>        -0.1517
      8 C8          0.0538   -2.8445    2.4885 C.3       1 <0>        -0.1657
      9 S1          0.0628   -4.5303   -0.0229 S.o2      1 <0>         2.6129
     10 O1         -0.9525   -4.9545    0.8764 O.2       1 <0>        -1.0144
     11 O2          0.0875   -4.9286   -1.3867 O.2       1 <0>        -1.0204
     12 N1          1.5064   -5.0050    0.6351 N.2       1 <0>        -1.0617
     13 C9          1.8051   -6.3638    0.7569 C.ar      1 <0>         0.3664
     14 C10         0.8946   -7.3178    0.3212 C.ar      1 <0>        -0.3196
     15 C11         1.1926   -8.6632    0.4429 C.ar      1 <0>         0.2634
     16 C12         2.3974   -9.0591    0.9989 C.ar      1 <0>        -0.8334
     17 C13         3.3066   -8.1096    1.4343 C.ar      1 <0>         0.2427
     18 C14         3.0156   -6.7631    1.3086 C.ar      1 <0>        -0.2308
     19 F1          4.4809   -8.4986    1.9773 F         1 <0>        -0.1215
     20 S2          2.7741  -10.7735    1.1531 S.o2      1 <0>         2.5137
     21 O3          3.6849  -10.8482    2.2412 O.2       1 <0>        -0.9397
     22 O4          1.5094  -11.4178    1.2214 O.2       1 <0>        -0.9400
     23 C15         3.6135  -11.2074   -0.3953 C.3       1 <0>        -0.6549
     24 F2          0.3072   -9.5916    0.0192 F         1 <0>        -0.1209
     25 H1          1.0042    1.8801    0.0026 H         1 <0>         0.0737
     26 H2         -0.5455    1.8639   -0.8728 H         1 <0>         0.0676
     27 H3         -0.5286    1.8543    0.9071 H         1 <0>         0.0677
     28 H4         -0.0064   -0.1437   -2.1314 H         1 <0>         0.1256
     29 H5          0.0266   -2.6056   -2.1449 H         1 <0>         0.1385
     30 H6          0.0246   -0.1666    2.1333 H         1 <0>         0.1259
     31 H7          1.0853   -3.0146    2.7969 H         1 <0>         0.0907
     32 H8         -0.4637   -2.2663    3.2539 H         1 <0>         0.0700
     33 H9         -0.4484   -3.8028    2.3555 H         1 <0>         0.1082
     34 H10        -0.0455   -7.0095   -0.1118 H         1 <0>         0.1239
     35 H11         3.7269   -6.0228    1.6439 H         1 <0>         0.1415
     36 H12         4.5154  -10.6044   -0.5010 H         1 <0>         0.1287
     37 H13         3.8825  -12.2636   -0.3791 H         1 <0>         0.1251
     38 H14         2.9472  -11.0151   -1.2362 H         1 <0>         0.1284
@<TRIPOS>BOND
     1    1    2 1
     2    1   25 1
     3    1   26 1
     4    1   27 1
     5    2    7 ar
     6    2    3 ar
     7    3    4 ar
     8    3   28 1
     9    4    5 ar
    10    4   29 1
    11    5    6 ar
    12    5    9 1
    13    6    7 ar
    14    6    8 1
    15    7   30 1
    16    8   31 1
    17    8   32 1
    18    8   33 1
    19    9   10 2
    20    9   11 2
    21    9   12 1
    22   12   13 1
    23   13   18 ar
    24   13   14 ar
    25   14   15 ar
    26   14   34 1
    27   15   16 ar
    28   15   24 1
    29   16   17 ar
    30   16   20 1
    31   17   18 ar
    32   17   19 1
    33   18   35 1
    34   20   21 2
    35   20   22 2
    36   20   23 1
    37   23   36 1
    38   23   37 1
    39   23   38 1
@<TRIPOS>MOLECULE
ZINC15011664
   35    36     0     0     0
SMALL
USER_CHARGES
2-[(5E)-4-oxo-2-thioxo-5-[(2,4,6-trimethylphenyl)methylene]thiazolidin-3-yl]acetic acid
@<TRIPOS>ATOM
      1 C1          2.3751    0.8763    0.2748 C.3       1 <0>        -0.1151
      2 C2          1.1102    1.6811    0.1214 C.ar      1 <0>        -0.0652
      3 C3         -0.0965    1.0344   -0.0826 C.ar      1 <0>        -0.1271
      4 C4         -1.2575    1.7635   -0.2287 C.ar      1 <0>        -0.0255
      5 C5         -1.2151    3.1604   -0.1596 C.ar      1 <0>        -0.0870
      6 C6          0.0089    3.8064    0.0470 C.ar      1 <0>        -0.0476
      7 C7          1.1615    3.0628    0.1858 C.ar      1 <0>        -0.1312
      8 C8          0.0670    5.3106    0.1169 C.3       1 <0>        -0.1202
      9 C9         -2.4490    3.9454   -0.3087 C.2       1 <0>         0.0674
     10 C10        -3.4729    3.7714    0.5634 C.2       1 <0>        -0.2087
     11 C11        -3.5333    2.9568    1.7958 C.2       1 <0>         0.5397
     12 O1         -2.5799    2.3052    2.1793 O.2       1 <0>        -0.4364
     13 N1         -4.6766    2.9732    2.4602 N.am      1 <0>        -0.4907
     14 C12        -5.7305    3.6972    2.0318 C.2       1 <0>         0.3086
     15 S1         -7.2791    3.8454    2.7467 S.2       1 <0>        -0.3523
     16 S2         -5.1183    4.4700    0.5432 S.3       1 <0>         0.0291
     17 C13        -4.8009    2.1872    3.6902 C.3       1 <0>         0.0360
     18 C14        -4.3876    3.0302    4.8690 C.2       1 <0>         0.4678
     19 O2         -4.0263    4.1705    4.6992 O.co2     1 <0>        -0.6243
     20 C15        -2.5692    1.0576   -0.4570 C.3       1 <0>        -0.1246
     21 H1          2.8296    0.7238   -0.7041 H         1 <0>         0.0701
     22 H2          3.0715    1.4132    0.9190 H         1 <0>         0.0667
     23 H3          2.1391   -0.0900    0.7204 H         1 <0>         0.0669
     24 H4         -0.1280   -0.0440   -0.1320 H         1 <0>         0.1228
     25 H5          2.1071    3.5598    0.3449 H         1 <0>         0.1236
     26 H6          0.2302    5.7148   -0.8821 H         1 <0>         0.0746
     27 H7         -0.8734    5.6925    0.5142 H         1 <0>         0.0681
     28 H8          0.8864    5.6126    0.7693 H         1 <0>         0.0715
     29 H9         -2.5402    4.6607   -1.1127 H         1 <0>         0.1554
     30 H10        -5.8361    1.8698    3.8156 H         1 <0>         0.1173
     31 H11        -4.1570    1.3099    3.6273 H         1 <0>         0.1070
     32 H12        -3.0093    0.7890    0.5034 H         1 <0>         0.0747
     33 H13        -3.2484    1.7184   -0.9958 H         1 <0>         0.0652
     34 H14        -2.3988    0.1550   -1.0437 H         1 <0>         0.0696
     35 O3         -4.4208    2.5141    6.1077 O.co2     1 <0>        -0.7464
@<TRIPOS>BOND
     1    1    2 1
     2    1   21 1
     3    1   22 1
     4    1   23 1
     5    2    7 ar
     6    2    3 ar
     7    3    4 ar
     8    3   24 1
     9    4    5 ar
    10    4   20 1
    11    5    6 ar
    12    5    9 1
    13    6    7 ar
    14    6    8 1
    15    7   25 1
    16    8   26 1
    17    8   27 1
    18    8   28 1
    19    9   10 2
    20    9   29 1
    21   10   16 1
    22   10   11 1
    23   11   12 2
    24   11   13 am
    25   13   14 1
    26   13   17 1
    27   14   15 2
    28   14   16 1
    29   17   18 1
    30   17   30 1
    31   17   31 1
    32   18   19 2
    33   18   35 1
    34   20   32 1
    35   20   33 1
    36   20   34 1
@<TRIPOS>MOLECULE
ZINC37370674
   30    31     0     0     0
SMALL
USER_CHARGES

@<TRIPOS>ATOM
      1 C1         -0.0793    1.5241   -0.2601 C.3       1 <0>        -0.1678
      2 C2         -0.0434    0.0196   -0.1813 C.2       1 <0>         0.4876
      3 O1          1.0211   -0.5610   -0.1520 O.2       1 <0>        -0.4659
      4 N1         -1.1943   -0.6808   -0.1432 N.am      1 <0>        -0.5602
      5 C3         -2.4867    0.0110   -0.0460 C.3       1 <0>         0.1030
      6 C4         -3.3330   -0.7228    1.0025 C.3       1 <0>        -0.1353
      7 C5         -3.6018   -2.1453    0.5127 C.3       1 <0>        -0.0741
      8 C6         -2.3141   -2.8190    0.1151 C.ar      1 <0>        -0.1031
      9 C7         -1.1782   -2.0823   -0.2017 C.ar      1 <0>         0.1415
     10 C8         -0.0088   -2.7254   -0.5744 C.ar      1 <0>        -0.0929
     11 C9          0.0300   -4.1220   -0.6360 C.ar      1 <0>        -0.1147
     12 C10        -1.1186   -4.8587   -0.3186 C.ar      1 <0>        -0.0750
     13 C11        -2.2753   -4.2042    0.0612 C.ar      1 <0>        -0.0969
     14 Br1        -1.0827   -6.7478   -0.3955 Br        1 <0>        -0.0370
     15 C12         1.2687   -4.8130   -1.0318 C.2       1 <0>         0.3175
     16 O2          1.2660   -6.0147   -1.1997 O.2       1 <0>        -0.4240
     17 C13         2.5295   -4.0340   -1.2269 C.2       1 <0>         0.4724
     18 O3          3.5272   -4.5866   -1.6612 O.co2     1 <0>        -0.6523
     19 O4          2.5611   -2.8454   -0.9518 O.co2     1 <0>        -0.6381
     20 H1          0.9395    1.9112   -0.2815 H         1 <0>         0.0965
     21 H2         -0.6026    1.8281   -1.1666 H         1 <0>         0.0875
     22 H3         -0.6006    1.9212    0.6109 H         1 <0>         0.0858
     23 H4         -2.3299    1.0444    0.2635 H         1 <0>         0.0931
     24 H5         -2.9921   -0.0134   -1.0114 H         1 <0>         0.0748
     25 H6         -2.7924   -0.7582    1.9484 H         1 <0>         0.0733
     26 H7         -4.2790   -0.1990    1.1398 H         1 <0>         0.0839
     27 H8         -4.0753   -2.7170    1.3108 H         1 <0>         0.0799
     28 H9         -4.2695   -2.1092   -0.3480 H         1 <0>         0.0778
     29 H10         0.8715   -2.1489   -0.8174 H         1 <0>         0.2321
     30 H11        -3.1594   -4.7746    0.3051 H         1 <0>         0.1309
@<TRIPOS>BOND
     1    1    2 1
     2    1   20 1
     3    1   21 1
     4    1   22 1
     5    2    3 2
     6    2    4 am
     7    4    9 1
     8    4    5 1
     9    5    6 1
    10    5   23 1
    11    5   24 1
    12    6    7 1
    13    6   25 1
    14    6   26 1
    15    7    8 1
    16    7   27 1
    17    7   28 1
    18    8   13 ar
    19    8    9 ar
    20    9   10 ar
    21   10   11 ar
    22   10   29 1
    23   11   12 ar
    24   11   15 1
    25   12   13 ar
    26   12   14 1
    27   13   30 1
    28   15   16 2
    29   15   17 1
    30   17   18 2
    31   17   19 1
@<TRIPOS>MOLECULE
ZINC48514953
   31    31     0     0     0
SMALL
USER_CHARGES

@<TRIPOS>ATOM
      1 C1         -0.0187    1.5258    0.0104 C.3       1 <0>        -0.1343
      2 C2          0.0021   -0.0041    0.0020 C.3       1 <0>        -0.0251
      3 H1          0.5123   -0.3556   -0.8948 H         1 <0>         0.0998
      4 C3          0.7309   -0.5033    1.2229 C.2       1 <0>         0.5076
      5 O1          0.0389   -0.8397    2.3312 O.3       1 <0>        -0.6965
      6 N1          2.0169   -0.6090    1.2084 N.2       1 <0>        -1.0593
      7 S1          2.8178   -1.1576    2.5500 S.o2      1 <0>         2.6497
      8 O2          2.6351   -0.1765    3.5615 O.2       1 <0>        -0.9977
      9 O3          2.4334   -2.5142    2.7261 O.2       1 <0>        -0.9964
     10 C4          4.5368   -1.1675    2.1628 C.ar      1 <0>        -0.6319
     11 C5          5.1130   -2.2932    1.6040 C.ar      1 <0>         0.0091
     12 C6          6.4613   -2.3010    1.3003 C.ar      1 <0>        -0.1442
     13 C7          7.2337   -1.1829    1.5548 C.ar      1 <0>        -0.0357
     14 C8          6.6575   -0.0572    2.1126 C.ar      1 <0>        -0.2118
     15 C9          5.3078   -0.0479    2.4124 C.ar      1 <0>         0.0280
     16 C10         7.4995    1.1613    2.3905 C.3       1 <0>         0.5122
     17 F1          8.8205    0.9137    2.0023 F         1 <0>        -0.1795
     18 F2          6.9975    2.2495    1.6687 F         1 <0>        -0.1742
     19 F3          7.4621    1.4519    3.7584 F         1 <0>        -0.1750
     20 S2         -1.6997   -0.6320    0.0149 S.3       1 <0>        -0.2080
     21 C11        -2.3841   -0.0774   -1.5709 C.3       1 <0>        -0.1432
     22 H2          1.0039    1.9031    0.0027 H         1 <0>         0.0712
     23 H3         -0.5459    1.8868   -0.8726 H         1 <0>         0.0542
     24 H4         -0.5289    1.8773    0.9072 H         1 <0>         0.0687
     25 H5          4.5096   -3.1666    1.4052 H         1 <0>         0.1484
     26 H6          6.9116   -3.1806    0.8645 H         1 <0>         0.1412
     27 H7          8.2875   -1.1892    1.3182 H         1 <0>         0.1410
     28 H8          4.8568    0.8330    2.8448 H         1 <0>         0.1481
     29 H9         -3.4181   -0.4113   -1.6570 H         1 <0>         0.0949
     30 H10        -2.3483    1.0108   -1.6214 H         1 <0>         0.0703
     31 H11        -1.7972   -0.4986   -2.3871 H         1 <0>         0.0685
@<TRIPOS>BOND
     1    1    2 1
     2    1   22 1
     3    1   23 1
     4    1   24 1
     5    2    3 1
     6    2    4 1
     7    2   20 1
     8    4    5 1
     9    4    6 2
    10    6    7 1
    11    7    8 2
    12    7    9 2
    13    7   10 1
    14   10   15 ar
    15   10   11 ar
    16   11   12 ar
    17   11   25 1
    18   12   13 ar
    19   12   26 1
    20   13   14 ar
    21   13   27 1
    22   14   15 ar
    23   14   16 1
    24   15   28 1
    25   16   17 1
    26   16   18 1
    27   16   19 1
    28   20   21 1
    29   21   29 1
    30   21   30 1
    31   21   31 1
@<TRIPOS>MOLECULE
ZINC16900071
   31    32     0     0     0
SMALL
USER_CHARGES

@<TRIPOS>ATOM
      1 C1         -0.3662   -2.7796    1.0683 C.3       1 <0>        -0.1285
      2 C2          1.0274   -2.4665    1.6167 C.3       1 <0>        -0.1294
      3 H1          1.0878   -2.7833    2.6579 H         1 <0>         0.0845
      4 C3          2.0631   -3.2029    0.8067 C.2       1 <0>         0.5175
      5 O1          2.6213   -2.6439   -0.1220 O.co2     1 <0>        -0.6692
      6 O2          2.3429   -4.3577    1.0801 O.co2     1 <0>        -0.6804
      7 S1          1.3326   -0.6815    1.5091 S.3       1 <0>        -0.1374
      8 C4          0.1436    0.0380    2.6749 C.3       1 <0>        -0.1400
      9 H2         -0.8617   -0.3316    2.4729 H         1 <0>         0.1370
     10 C5          0.5538   -0.2719    4.1290 C.3       1 <0>        -0.1498
     11 C6          0.7808    1.0969    4.7328 C.2       1 <0>         0.5363
     12 O3          1.1211    1.3123    5.8763 O.2       1 <0>        -0.4717
     13 N1          0.5468    2.0323    3.8041 N.am      1 <0>        -0.5312
     14 C7          0.1791    1.5492    2.6070 C.2       1 <0>         0.5574
     15 O4         -0.0816    2.2144    1.6277 O.2       1 <0>        -0.4481
     16 C8          0.6733    3.4047    4.0609 C.ar      1 <0>         0.1228
     17 C9         -0.4534    4.2162    4.0760 C.ar      1 <0>        -0.0853
     18 C10        -0.3263    5.5678    4.3297 C.ar      1 <0>        -0.1026
     19 C11         0.9215    6.1138    4.5686 C.ar      1 <0>        -0.0820
     20 C12         2.0462    5.3082    4.5539 C.ar      1 <0>        -0.0814
     21 C13         1.9241    3.9537    4.3062 C.ar      1 <0>        -0.0700
     22 Br1         3.7507    6.0593    4.8799 Br        1 <0>        -0.0393
     23 H3         -0.4585   -2.3773    0.0595 H         1 <0>         0.0663
     24 H4         -0.5128   -3.8594    1.0437 H         1 <0>         0.0662
     25 H5         -1.1201   -2.3251    1.7111 H         1 <0>         0.0421
     26 H6         -0.2485   -0.7932    4.6511 H         1 <0>         0.1257
     27 H7          1.4723   -0.8584    4.1518 H         1 <0>         0.1354
     28 H8         -1.4283    3.7908    3.8892 H         1 <0>         0.1343
     29 H9         -1.2025    6.1992    4.3411 H         1 <0>         0.1420
     30 H10         1.0183    7.1710    4.7668 H         1 <0>         0.1396
     31 H11         2.8016    3.3242    4.2991 H         1 <0>         0.1395
@<TRIPOS>BOND
     1    1    2 1
     2    1   23 1
     3    1   24 1
     4    1   25 1
     5    2    3 1
     6    2    4 1
     7    2    7 1
     8    4    5 2
     9    4    6 1
    10    7    8 1
    11    8    9 1
    12    8   14 1
    13    8   10 1
    14   10   11 1
    15   10   26 1
    16   10   27 1
    17   11   12 2
    18   11   13 am
    19   13   14 am
    20   13   16 1
    21   14   15 2
    22   16   21 ar
    23   16   17 ar
    24   17   18 ar
    25   17   28 1
    26   18   19 ar
    27   18   29 1
    28   19   20 ar
    29   19   30 1
    30   20   21 ar
    31   20   22 1
    32   21   31 1
@<TRIPOS>MOLECULE
ZINC63156067
   30    31     0     0     0
SMALL
USER_CHARGES

@<TRIPOS>ATOM
      1 C1         -0.0167    1.3788    0.0096 C.ar      1 <0>        -0.0548
      2 C2          1.1693    2.0881    0.0021 C.ar      1 <0>        -0.1654
      3 C3          2.3812    1.4120   -0.0130 C.ar      1 <0>         0.2773
      4 C4          2.3981    0.0210   -0.0206 C.ar      1 <0>        -0.0522
      5 C5          1.2082   -0.6827   -0.0131 C.ar      1 <0>        -0.0697
      6 C6          0.0021   -0.0041    0.0020 C.ar      1 <0>        -0.1720
      7 Br1        -1.6237   -0.9698    0.0129 Br        1 <0>        -0.0891
      8 F1          3.5756   -0.6412   -0.0358 F         1 <0>        -0.1326
      9 N1          3.5831    2.1276   -0.0211 N.2       1 <0>        -1.1002
     10 S1          5.0282    1.3190   -0.0392 S.o2      1 <0>         2.5524
     11 O1          5.0622    0.6097    1.1916 O.2       1 <0>        -1.0231
     12 O2          5.0382    0.6220   -1.2775 O.2       1 <0>        -1.0037
     13 C7          6.2910    2.6212   -0.0450 C.3       1 <0>        -0.6256
     14 C8          7.6815    1.9831   -0.0617 C.3       1 <0>         0.0901
     15 H1          7.7760    1.2809    0.7666 H         1 <0>         0.0898
     16 C9          8.7622    3.0794    0.0552 C.3       1 <0>        -0.1434
     17 C10         9.8574    2.5678   -0.9200 C.3       1 <0>        -0.1576
     18 C11         8.9879    1.8965   -2.0127 C.3       1 <0>         0.0470
     19 O3          7.8878    1.3000   -1.3037 O.3       1 <0>        -0.3655
     20 H2         -0.9596    1.9052    0.0260 H         1 <0>         0.1206
     21 H3          1.1532    3.1680    0.0077 H         1 <0>         0.1289
     22 H4          1.2198   -1.7626   -0.0189 H         1 <0>         0.1232
     23 H5          6.1665    3.2442   -0.9307 H         1 <0>         0.1237
     24 H6          6.1838    3.2353    0.8492 H         1 <0>         0.1277
     25 H7          8.3730    4.0441   -0.2702 H         1 <0>         0.0816
     26 H8          9.1464    3.1383    1.0735 H         1 <0>         0.0840
     27 H9         10.4350    3.3957   -1.3312 H         1 <0>         0.0827
     28 H10        10.5078    1.8407   -0.4337 H         1 <0>         0.0788
     29 H11         8.6238    2.6433   -2.7183 H         1 <0>         0.0610
     30 H12         9.5610    1.1298   -2.5342 H         1 <0>         0.0863
@<TRIPOS>BOND
     1    1    6 ar
     2    1    2 ar
     3    1   20 1
     4    2    3 ar
     5    2   21 1
     6    3    4 ar
     7    3    9 1
     8    4    5 ar
     9    4    8 1
    10    5    6 ar
    11    5   22 1
    12    6    7 1
    13    9   10 1
    14   10   11 2
    15   10   12 2
    16   10   13 1
    17   13   14 1
    18   13   23 1
    19   13   24 1
    20   14   15 1
    21   14   19 1
    22   14   16 1
    23   16   17 1
    24   16   25 1
    25   16   26 1
    26   17   18 1
    27   17   27 1
    28   17   28 1
    29   18   19 1
    30   18   29 1
    31   18   30 1
@<TRIPOS>MOLECULE
ZINC20024168
   40    42     0     0     0
SMALL
USER_CHARGES
(5Z)-1-(2-chlorophenyl)-5-[(1-piperidylamino)methylene]-2-thioxo-hexahydropyrimidine-4,6-dione
@<TRIPOS>ATOM
      1 C1         -2.6383    3.0032    2.6429 C.ar      1 <0>        -0.1094
      2 C2         -3.4776    3.4077    1.6209 C.ar      1 <0>        -0.1099
      3 C3         -3.1479    3.1410    0.3050 C.ar      1 <0>        -0.1087
      4 C4         -1.9746    2.4736    0.0069 C.ar      1 <0>        -0.0091
      5 C5         -1.1323    2.0615    1.0321 C.ar      1 <0>         0.1785
      6 C6         -1.4671    2.3314    2.3522 C.ar      1 <0>        -0.0818
      7 N1          0.0554    1.3799    0.7341 N.am      1 <0>        -0.5053
      8 C7          1.1854    2.0861    0.5239 C.2       1 <0>         0.5807
      9 O1          1.1853    3.3008    0.5945 O.2       1 <0>        -0.5536
     10 C8          2.4198    1.3466    0.2056 C.2       1 <0>        -0.4420
     11 C9          3.6152    2.0023   -0.0221 C.2       1 <0>         0.3405
     12 N2          3.6390    3.3471   -0.1173 N.pl3     1 <0>        -0.5479
     13 N3          4.8321    4.0030   -0.2280 N.3       1 <0>        -0.3166
     14 C10         5.0700    4.8631    0.9382 C.3       1 <0>         0.0357
     15 C11         6.4735    5.4669    0.8505 C.3       1 <0>        -0.1142
     16 C12         6.5938    6.2811   -0.4407 C.3       1 <0>        -0.1255
     17 C13         6.2939    5.3736   -1.6369 C.3       1 <0>        -0.1135
     18 C14         4.8956    4.7725   -1.4771 C.3       1 <0>         0.0351
     19 C15         2.3241   -0.1230    0.1414 C.2       1 <0>         0.5533
     20 O2          3.3005   -0.8021   -0.1151 O.3       1 <0>        -0.5453
     21 N4          1.1248   -0.6945    0.3753 N.2       1 <0>        -0.6219
     22 C16         0.0413    0.0417    0.6590 C.2       1 <0>         0.5499
     23 S1         -1.4393   -0.7703    0.9410 S.2       1 <0>        -0.7073
     24 Cl1        -1.5573    2.1451   -1.6458 Cl        1 <0>        -0.0648
     25 H1         -2.8989    3.2132    3.6698 H         1 <0>         0.1288
     26 H2         -4.3924    3.9335    1.8512 H         1 <0>         0.1294
     27 H3         -3.8054    3.4582   -0.4909 H         1 <0>         0.1322
     28 H4         -0.8124    2.0159    3.1511 H         1 <0>         0.1264
     29 H5          4.5470    1.4270   -0.1256 H         1 <0>         0.1708
     30 H6          2.6976    3.9160   -0.1058 H         1 <0>         0.4285
     31 H7          4.3241    5.6713    0.9559 H         1 <0>         0.0437
     32 H8          4.9852    4.2656    1.8579 H         1 <0>         0.0845
     33 H9          6.6454    6.1226    1.7169 H         1 <0>         0.0737
     34 H10         7.2205    4.6595    0.8479 H         1 <0>         0.0763
     35 H11         5.8741    7.1127   -0.4182 H         1 <0>         0.0607
     36 H12         7.6145    6.6819   -0.5277 H         1 <0>         0.0689
     37 H13         6.3376    5.9632   -2.5645 H         1 <0>         0.0739
     38 H14         7.0394    4.5659   -1.6804 H         1 <0>         0.0768
     39 H15         4.6829    4.1086   -2.3280 H         1 <0>         0.0853
     40 H16         4.1505    5.5812   -1.4479 H         1 <0>         0.0432
@<TRIPOS>BOND
     1    1    6 ar
     2    1    2 ar
     3    1   25 1
     4    2    3 ar
     5    2   26 1
     6    3    4 ar
     7    3   27 1
     8    4    5 ar
     9    4   24 1
    10    5    6 ar
    11    5    7 1
    12    6   28 1
    13    7   22 1
    14    7    8 am
    15    8    9 2
    16    8   10 1
    17   10   11 2
    18   10   19 1
    19   11   12 1
    20   11   29 1
    21   12   13 1
    22   12   30 1
    23   13   18 1
    24   13   14 1
    25   14   15 1
    26   14   31 1
    27   14   32 1
    28   15   16 1
    29   15   33 1
    30   15   34 1
    31   16   17 1
    32   16   35 1
    33   16   36 1
    34   17   18 1
    35   17   37 1
    36   17   38 1
    37   18   39 1
    38   18   40 1
    39   19   20 1
    40   19   21 2
    41   21   22 1
    42   22   23 2
@<TRIPOS>MOLECULE
ZINC37730830
   29    30     0     0     0
SMALL
USER_CHARGES

@<TRIPOS>ATOM
      1 C1         -0.0931    1.4899    0.0487 C.3       1 <0>        -0.1151
      2 C2         -0.0365   -0.0157    0.0183 C.2       1 <0>         0.2086
      3 C3          0.0066   -0.7902   -1.0905 C.2       1 <0>        -0.7602
      4 C4          0.0517   -2.1267   -0.6804 C.2       1 <0>         0.1313
      5 N1          0.0363   -2.1536    0.6276 N.2       1 <0>        -0.3059
      6 N2         -0.0139   -0.8329    1.0920 N.pl3     1 <0>        -0.4759
      7 H1         -0.0315   -0.5550    2.0211 H         1 <0>         0.4350
      8 S1          0.0054   -0.2165   -2.7564 S.o2      1 <0>         2.6367
      9 O1          0.9942    0.8010   -2.8363 O.2       1 <0>        -1.0279
     10 O2          0.0324   -1.3715   -3.5838 O.2       1 <0>        -1.0280
     11 N3         -1.4541    0.5202   -3.0196 N.2       1 <0>        -1.0725
     12 C5         -1.7065    1.1556   -4.2385 C.ar      1 <0>         0.2901
     13 C6         -0.7931    1.0521   -5.2796 C.ar      1 <0>        -0.2085
     14 C7         -1.0457    1.6808   -6.4831 C.ar      1 <0>        -0.1235
     15 C8         -2.2063    2.4133   -6.6527 C.ar      1 <0>        -0.1729
     16 C9         -3.1183    2.5190   -5.6188 C.ar      1 <0>        -0.0697
     17 C10        -2.8748    1.8877   -4.4136 C.ar      1 <0>        -0.0698
     18 Cl1        -4.0233    2.0151   -3.1180 Cl        1 <0>        -0.0785
     19 C11        -0.0548    1.5687   -7.6130 C.3       1 <0>         0.5049
     20 F1         -0.3664    0.4531   -8.3976 F         1 <0>        -0.1811
     21 F2         -0.1129    2.7235   -8.4005 F         1 <0>        -0.1829
     22 F3          1.2348    1.4254   -7.0899 F         1 <0>        -0.1781
     23 H2          0.9202    1.8913    0.0641 H         1 <0>         0.0937
     24 H3         -0.6139    1.8519   -0.8377 H         1 <0>         0.1099
     25 H4         -0.6265    1.8155    0.9418 H         1 <0>         0.0770
     26 H5          0.0918   -2.9878   -1.3311 H         1 <0>         0.1944
     27 H6          0.1139    0.4808   -5.1480 H         1 <0>         0.1180
     28 H7         -2.4006    2.9044   -7.5948 H         1 <0>         0.1242
     29 H8         -4.0236    3.0922   -5.7544 H         1 <0>         0.1268
@<TRIPOS>BOND
     1    1    2 1
     2    1   23 1
     3    1   24 1
     4    1   25 1
     5    2    6 1
     6    2    3 2
     7    3    4 1
     8    3    8 1
     9    4    5 2
    10    4   26 1
    11    5    6 1
    12    6    7 1
    13    8    9 2
    14    8   10 2
    15    8   11 1
    16   11   12 1
    17   12   17 ar
    18   12   13 ar
    19   13   14 ar
    20   13   27 1
    21   14   15 ar
    22   14   19 1
    23   15   16 ar
    24   15   28 1
    25   16   17 ar
    26   16   29 1
    27   17   18 1
    28   19   20 1
    29   19   21 1
    30   19   22 1
@<TRIPOS>MOLECULE
ZINC50662733
   30    31     0     0     0
SMALL
USER_CHARGES

@<TRIPOS>ATOM
      1 C1         -0.0178    1.4608    0.0101 C.3       1 <0>         0.0973
      2 N1          0.0021   -0.0041    0.0020 N.pl3     1 <0>        -0.7032
      3 C2         -1.1925   -0.7156    0.0096 C.ar      1 <0>         0.4998
      4 C3         -1.1662   -2.1067    0.0076 C.ar      1 <0>        -0.7350
      5 C4         -2.3616   -2.8022    0.0152 C.ar      1 <0>         0.0889
      6 C5         -3.5487   -2.0801    0.0246 C.ar      1 <0>        -0.2357
      7 C6         -3.5004   -0.6999    0.0261 C.ar      1 <0>         0.2239
      8 N2         -2.3444   -0.0632    0.0241 N.ar      1 <0>        -0.5460
      9 Br1        -5.2129   -2.9779    0.0347 Br        1 <0>        -0.0475
     10 S1          0.3694   -2.9706   -0.0050 S.o2      1 <0>         2.6144
     11 O1          1.1703   -2.3903    1.0153 O.2       1 <0>        -1.0246
     12 O2          0.0556   -4.3563   -0.0316 O.2       1 <0>        -1.0195
     13 N3          1.1132   -2.6262   -1.4440 N.2       1 <0>        -1.0788
     14 C7          2.3637   -3.1803   -1.7349 C.ar      1 <0>         0.2735
     15 C8          2.9805   -4.0242   -0.8206 C.ar      1 <0>        -0.2522
     16 C9          4.2157   -4.5712   -1.1098 C.ar      1 <0>        -0.0459
     17 C10         4.8401   -4.2802   -2.3086 C.ar      1 <0>        -0.2319
     18 C11         4.2301   -3.4389   -3.2240 C.ar      1 <0>         0.1012
     19 C12         2.9893   -2.8921   -2.9423 C.ar      1 <0>        -0.0024
     20 F1          2.3903   -2.0761   -3.8371 F         1 <0>        -0.1351
     21 F2          4.8429   -3.1561   -4.3943 F         1 <0>        -0.1445
     22 H1          1.0048    1.8381    0.0023 H         1 <0>         0.0758
     23 H2         -0.5450    1.8219   -0.8730 H         1 <0>         0.0614
     24 H3         -0.5280    1.8123    0.9069 H         1 <0>         0.0591
     25 H4          0.8486   -0.4776   -0.0086 H         1 <0>         0.4243
     26 H5         -2.3721   -3.8821    0.0135 H         1 <0>         0.1563
     27 H6         -4.4205   -0.1343    0.0334 H         1 <0>         0.1666
     28 H7          2.4948   -4.2526    0.1165 H         1 <0>         0.1122
     29 H8          4.6947   -5.2271   -0.3979 H         1 <0>         0.1219
     30 H9          5.8057   -4.7095   -2.5314 H         1 <0>         0.1259
@<TRIPOS>BOND
     1    1    2 1
     2    1   22 1
     3    1   23 1
     4    1   24 1
     5    2    3 1
     6    2   25 1
     7    3    8 ar
     8    3    4 ar
     9    4    5 ar
    10    4   10 1
    11    5    6 ar
    12    5   26 1
    13    6    7 ar
    14    6    9 1
    15    7    8 ar
    16    7   27 1
    17   10   11 2
    18   10   12 2
    19   10   13 1
    20   13   14 1
    21   14   19 ar
    22   14   15 ar
    23   15   16 ar
    24   15   28 1
    25   16   17 ar
    26   16   29 1
    27   17   18 ar
    28   17   30 1
    29   18   19 ar
    30   18   21 1
    31   19   20 1
@<TRIPOS>MOLECULE
ZINC62716062
   33    34     0     0     0
SMALL
USER_CHARGES

@<TRIPOS>ATOM
      1 C1          3.1988   -0.0768   -1.0290 C.3       1 <0>        -0.1878
      2 C2          1.9521   -0.6679   -0.4228 C.2       1 <0>         0.4073
      3 O1          2.0236   -1.3166    0.6023 O.2       1 <0>        -0.4716
      4 C3          0.7055   -0.4688   -1.0437 C.2       1 <0>        -0.2712
      5 C4         -0.4714   -0.9097   -0.4145 C.2       1 <0>        -0.0963
      6 S1         -2.0717   -0.8627   -0.8246 S.3       1 <0>         0.0219
      7 C5         -2.5639   -1.6944    0.7038 C.3       1 <0>        -0.1633
      8 S2         -0.7824   -1.6797    1.0143 S.3       1 <0>         0.1051
      9 C6         -3.3703   -0.8374    1.6453 C.2       1 <0>         0.5282
     10 O2         -4.1933   -1.3510    2.3837 O.co2     1 <0>        -0.6481
     11 O3         -3.1996    0.3696    1.6685 O.co2     1 <0>        -0.6405
     12 C7          0.6342    0.1978   -2.3451 C.2       1 <0>         0.5988
     13 O4          0.9891   -0.3901   -3.3504 O.2       1 <0>        -0.5103
     14 N1          0.1755    1.4622   -2.4304 N.am      1 <0>        -0.6687
     15 C8          0.2545    2.1545   -3.6431 C.ar      1 <0>         0.1532
     16 C9          0.0365    1.4865   -4.8414 C.ar      1 <0>        -0.0872
     17 C10         0.1152    2.1729   -6.0370 C.ar      1 <0>        -0.1015
     18 C11         0.4108    3.5240   -6.0423 C.ar      1 <0>        -0.0901
     19 C12         0.6284    4.1918   -4.8514 C.ar      1 <0>        -0.1667
     20 C13         0.5454    3.5123   -3.6516 C.ar      1 <0>        -0.0948
     21 C14         0.9507    5.6639   -4.8619 C.3       1 <0>         0.5106
     22 F1          0.9735    6.1269   -6.1819 F         1 <0>        -0.1776
     23 F2         -0.0250    6.3601   -4.1404 F         1 <0>        -0.1753
     24 F3          2.2027    5.8714   -4.2733 F         1 <0>        -0.1764
     25 H1          3.6742   -0.8152   -1.6746 H         1 <0>         0.0946
     26 H2          2.9354    0.8031   -1.6159 H         1 <0>         0.0720
     27 H3          3.8884    0.2093   -0.2349 H         1 <0>         0.0868
     28 H4         -2.9829   -2.6901    0.5586 H         1 <0>         0.1648
     29 H5         -0.2093    1.8922   -1.6507 H         1 <0>         0.4196
     30 H6         -0.1940    0.4314   -4.8379 H         1 <0>         0.1489
     31 H7         -0.0538    1.6541   -6.9690 H         1 <0>         0.1385
     32 H8          0.4722    4.0585   -6.9788 H         1 <0>         0.1382
     33 H9          0.7108    4.0356   -2.7214 H         1 <0>         0.1387
@<TRIPOS>BOND
     1    1    2 1
     2    1   25 1
     3    1   26 1
     4    1   27 1
     5    2    3 2
     6    2    4 1
     7    4    5 2
     8    4   12 1
     9    5    8 1
    10    5    6 1
    11    6    7 1
    12    7    8 1
    13    7    9 1
    14    7   28 1
    15    9   10 2
    16    9   11 1
    17   12   13 2
    18   12   14 am
    19   14   15 1
    20   14   29 1
    21   15   20 ar
    22   15   16 ar
    23   16   17 ar
    24   16   30 1
    25   17   18 ar
    26   17   31 1
    27   18   19 ar
    28   18   32 1
    29   19   20 ar
    30   19   21 1
    31   20   33 1
    32   21   22 1
    33   21   23 1
    34   21   24 1
@<TRIPOS>MOLECULE
ZINC11373133
   38    40     0     0     0
SMALL
USER_CHARGES

@<TRIPOS>ATOM
      1 C1          0.0717    1.2018   -0.2824 C.3       1 <0>        -0.1553
      2 C2          0.0897   -0.3134   -0.0714 C.3       1 <0>         0.0886
      3 N1         -1.2850   -0.8191   -0.0445 N.pl3     1 <0>        -0.4911
      4 C3         -1.9485   -0.8823    1.1301 C.2       1 <0>         0.5016
      5 O1         -1.3637   -0.4868    2.2744 O.3       1 <0>        -0.6089
      6 C4         -3.2713   -1.3736    1.1260 C.ar      1 <0>        -0.2212
      7 C5         -4.0234   -1.4684    2.3056 C.ar      1 <0>        -0.0097
      8 C6         -5.2972   -1.9472    2.2615 C.ar      1 <0>        -0.1698
      9 C7         -5.8717   -2.3502    1.0457 C.ar      1 <0>        -0.0865
     10 C8         -5.1529   -2.2680   -0.1358 C.ar      1 <0>        -0.0668
     11 C9         -3.8396   -1.7770   -0.1108 C.ar      1 <0>         0.2135
     12 N2         -3.1071   -1.6794   -1.2293 N.2       1 <0>        -0.5527
     13 C10        -1.8702   -1.2084   -1.1894 C.2       1 <0>         0.5037
     14 S1         -0.9820   -1.0981   -2.6488 S.2       1 <0>        -0.7027
     15 C11        -7.2588   -2.8684    1.0260 C.2       1 <0>         0.5646
     16 O2         -7.7617   -3.2188   -0.0234 O.2       1 <0>        -0.5087
     17 N3         -7.9636   -2.9514    2.1718 N.am      1 <0>        -0.6714
     18 C12        -9.3080   -3.3353    2.1396 C.ar      1 <0>         0.1556
     19 C13        -9.8471   -4.0678    3.1910 C.ar      1 <0>        -0.1178
     20 C14       -11.1752   -4.4494    3.1644 C.ar      1 <0>        -0.0989
     21 C15       -11.9755   -4.1062    2.0936 C.ar      1 <0>        -0.0903
     22 C16       -11.4439   -3.3706    1.0324 C.ar      1 <0>        -0.0080
     23 C17       -10.1045   -2.9805    1.0620 C.ar      1 <0>        -0.0761
     24 C18       -12.2718   -3.0135   -0.0802 C.1       1 <0>         0.2564
     25 N4        -12.9285   -2.7303   -0.9628 N.1       1 <0>        -0.4144
     26 H1          1.0945    1.5781   -0.3024 H         1 <0>         0.0688
     27 H2         -0.4184    1.4311   -1.2286 H         1 <0>         0.0678
     28 H3         -0.4739    1.6758    0.5336 H         1 <0>         0.0509
     29 H4          0.6353   -0.7874   -0.8874 H         1 <0>         0.1166
     30 H5          0.5798   -0.5427    0.8748 H         1 <0>         0.0866
     31 H6         -3.5929   -1.1623    3.2476 H         1 <0>         0.1366
     32 H7         -5.8723   -2.0182    3.1728 H         1 <0>         0.1226
     33 H8         -5.6002   -2.5795   -1.0681 H         1 <0>         0.1475
     34 H9         -7.5383   -2.7448    3.0188 H         1 <0>         0.4161
     35 H10        -9.2258   -4.3400    4.0314 H         1 <0>         0.1353
     36 H11       -11.5881   -5.0183    3.9843 H         1 <0>         0.1378
     37 H12       -13.0126   -4.4069    2.0763 H         1 <0>         0.1333
     38 H13        -9.6887   -2.4077    0.2463 H         1 <0>         0.1464
@<TRIPOS>BOND
     1    1    2 1
     2    1   26 1
     3    1   27 1
     4    1   28 1
     5    2    3 1
     6    2   29 1
     7    2   30 1
     8    3   13 1
     9    3    4 1
    10    4    5 1
    11    4    6 2
    12    6   11 ar
    13    6    7 ar
    14    7    8 ar
    15    7   31 1
    16    8    9 ar
    17    8   32 1
    18    9   10 ar
    19    9   15 1
    20   10   11 ar
    21   10   33 1
    22   11   12 2
    23   12   13 1
    24   13   14 2
    25   15   16 2
    26   15   17 am
    27   17   18 1
    28   17   34 1
    29   18   23 ar
    30   18   19 ar
    31   19   20 ar
    32   19   35 1
    33   20   21 ar
    34   20   36 1
    35   21   22 ar
    36   21   37 1
    37   22   23 ar
    38   22   24 1
    39   23   38 1
    40   24   25 3
@<TRIPOS>MOLECULE
ZINC09974222
   62    64     0     0     0
SMALL
USER_CHARGES
2-[(1,3-dimethyl-2,4,6-trioxo-hexahydropyrimidin-5-ylidene)-(m-tolylamino)methyl]sulfanyl-N-(2,4,6-trimethylphenyl)-acetamide
@<TRIPOS>ATOM
      1 C1         -7.0723   -0.8792   -0.2504 C.3       1 <0>        -0.1169
      2 C2         -6.3213    0.1438    0.5623 C.ar      1 <0>        -0.0427
      3 C3         -6.5194    0.2212    1.9289 C.ar      1 <0>        -0.1581
      4 C4         -5.8331    1.1590    2.6780 C.ar      1 <0>        -0.0703
      5 C5         -4.9464    2.0216    2.0634 C.ar      1 <0>        -0.1841
      6 C6         -4.7448    1.9462    0.6914 C.ar      1 <0>         0.2136
      7 C7         -5.4400    1.0064   -0.0591 C.ar      1 <0>        -0.1666
      8 N1         -3.8483    2.8182    0.0660 N.pl3     1 <0>        -0.6945
      9 C8         -3.1040    3.6836    0.8139 C.2       1 <0>         0.2551
     10 C9         -3.6313    4.9324    1.1729 C.2       1 <0>        -0.3159
     11 C10        -4.9612    5.2914    0.8219 C.2       1 <0>         0.5741
     12 O1         -5.6670    4.5174    0.2013 O.2       1 <0>        -0.4788
     13 N2         -5.4307    6.5000    1.1913 N.am      1 <0>        -0.5651
     14 C11        -4.6570    7.3628    1.8709 C.2       1 <0>         0.7071
     15 O2         -5.1139    8.4454    2.1818 O.2       1 <0>        -0.5263
     16 N3         -3.3938    7.0650    2.2176 N.am      1 <0>        -0.5616
     17 C12        -2.8483    5.8757    1.8926 C.2       1 <0>         0.5630
     18 O3         -1.7025    5.6137    2.2103 O.2       1 <0>        -0.4777
     19 C13        -2.5976    8.0464    2.9588 C.3       1 <0>         0.0804
     20 C14        -6.8015    6.8803    0.8411 C.3       1 <0>         0.0819
     21 S1         -1.5266    3.2447    1.3138 S.3       1 <0>         0.2331
     22 C15        -1.3492    1.6667    0.4451 C.3       1 <0>        -0.2324
     23 C16        -0.0455    1.0209    0.8378 C.2       1 <0>         0.5338
     24 O4          0.6498    1.5288    1.6919 O.2       1 <0>        -0.4966
     25 N4          0.3504   -0.1182    0.2360 N.am      1 <0>        -0.6661
     26 C17         1.6017   -0.6688    0.5345 C.ar      1 <0>         0.1236
     27 C18         2.7486    0.1052    0.4162 C.ar      1 <0>        -0.0630
     28 C19         3.9818   -0.4399    0.7157 C.ar      1 <0>        -0.1154
     29 C20         4.0761   -1.7579    1.1233 C.ar      1 <0>        -0.0771
     30 C21         2.9365   -2.5327    1.2375 C.ar      1 <0>        -0.1162
     31 C22         1.6999   -1.9921    0.9441 C.ar      1 <0>        -0.0843
     32 C23         0.4584   -2.8372    1.0688 C.3       1 <0>        -0.1154
     33 C24         5.4238   -2.3510    1.4443 C.3       1 <0>        -0.1163
     34 C25         2.6473    1.5400   -0.0334 C.3       1 <0>        -0.1109
     35 H1         -8.0133   -0.4500   -0.5948 H         1 <0>         0.0736
     36 H2         -6.4706   -1.1729   -1.1105 H         1 <0>         0.0665
     37 H3         -7.2764   -1.7545    0.3663 H         1 <0>         0.0687
     38 H4         -7.2121   -0.4520    2.4119 H         1 <0>         0.1223
     39 H5         -5.9906    1.2173    3.7449 H         1 <0>         0.1246
     40 H6         -4.4109    2.7541    2.6490 H         1 <0>         0.1152
     41 H7         -5.2888    0.9481   -1.1268 H         1 <0>         0.1236
     42 H8         -3.7555    2.8080   -0.8995 H         1 <0>         0.4225
     43 H9         -2.0638    8.6863    2.2562 H         1 <0>         0.0755
     44 H10        -3.2564    8.6561    3.5772 H         1 <0>         0.0943
     45 H11        -1.8805    7.5270    3.5943 H         1 <0>         0.0958
     46 H12        -7.0061    7.8844    1.2126 H         1 <0>         0.1023
     47 H13        -6.9177    6.8631   -0.2425 H         1 <0>         0.0787
     48 H14        -7.5004    6.1763    1.2927 H         1 <0>         0.0791
     49 H15        -1.3587    1.8412   -0.6308 H         1 <0>         0.1275
     50 H16        -2.1759    1.0091    0.7138 H         1 <0>         0.1318
     51 H17        -0.2320   -0.5564   -0.4041 H         1 <0>         0.4102
     52 H18         4.8737    0.1626    0.6275 H         1 <0>         0.1265
     53 H19         3.0135   -3.5618    1.5561 H         1 <0>         0.1267
     54 H20         0.2618   -3.3363    0.1199 H         1 <0>         0.0724
     55 H21         0.6042   -3.5843    1.8489 H         1 <0>         0.0718
     56 H22        -0.3889   -2.2022    1.3276 H         1 <0>         0.0640
     57 H23         5.8517   -2.7897    0.5429 H         1 <0>         0.0722
     58 H24         6.0854   -1.5691    1.8172 H         1 <0>         0.0680
     59 H25         5.3091   -3.1232    2.2050 H         1 <0>         0.0677
     60 H26         2.6468    2.1947    0.8381 H         1 <0>         0.0854
     61 H27         3.4986    1.7825   -0.6695 H         1 <0>         0.0655
     62 H28         1.7231    1.6807   -0.5940 H         1 <0>         0.0541
@<TRIPOS>BOND
     1    1    2 1
     2    1   35 1
     3    1   36 1
     4    1   37 1
     5    2    7 ar
     6    2    3 ar
     7    3    4 ar
     8    3   38 1
     9    4    5 ar
    10    4   39 1
    11    5    6 ar
    12    5   40 1
    13    6    7 ar
    14    6    8 1
    15    7   41 1
    16    8    9 1
    17    8   42 1
    18    9   10 2
    19    9   21 1
    20   10   17 1
    21   10   11 1
    22   11   12 2
    23   11   13 am
    24   13   14 am
    25   13   20 1
    26   14   15 2
    27   14   16 am
    28   16   17 am
    29   16   19 1
    30   17   18 2
    31   19   43 1
    32   19   44 1
    33   19   45 1
    34   20   46 1
    35   20   47 1
    36   20   48 1
    37   21   22 1
    38   22   23 1
    39   22   49 1
    40   22   50 1
    41   23   24 2
    42   23   25 am
    43   25   26 1
    44   25   51 1
    45   26   31 ar
    46   26   27 ar
    47   27   28 ar
    48   27   34 1
    49   28   29 ar
    50   28   52 1
    51   29   30 ar
    52   29   33 1
    53   30   31 ar
    54   30   53 1
    55   31   32 1
    56   32   54 1
    57   32   55 1
    58   32   56 1
    59   33   57 1
    60   33   58 1
    61   33   59 1
    62   34   60 1
    63   34   61 1
    64   34   62 1
@<TRIPOS>MOLECULE
ZINC17637553
   47    49     0     0     0
SMALL
USER_CHARGES
2-chloro-N-[(3S)-1,1-dioxothiolan-3-yl]-5-[[3-(trifluoromethyl)phenyl]sulfamoyl]benzamide
@<TRIPOS>ATOM
      1 C1          0.0763    7.2445    3.1017 C.ar      1 <0>        -0.0953
      2 C2          0.1703    6.2508    4.0590 C.ar      1 <0>        -0.0763
      3 C3          0.1794    4.9209    3.6809 C.ar      1 <0>        -0.1635
      4 C4          0.1002    4.5806    2.3445 C.ar      1 <0>        -0.0784
      5 C5          0.0115    5.5762    1.3802 C.ar      1 <0>         0.1394
      6 C6          0.0026    6.9116    1.7636 C.ar      1 <0>        -0.1243
      7 N1         -0.0692    5.2358    0.0280 N.pl3     1 <0>        -1.0533
      8 S1         -1.1896    5.9702   -0.9454 S.o2      1 <0>         2.6926
      9 O1         -1.0237    7.3707   -0.7706 O.2       1 <0>        -0.9396
     10 O2         -1.0945    5.3447   -2.2178 O.2       1 <0>        -0.9357
     11 C7         -2.7806    5.5677   -0.3041 C.ar      1 <0>        -0.6877
     12 C8         -3.3941    4.3831   -0.6732 C.ar      1 <0>         0.0233
     13 C9         -4.6400    4.0561   -0.1706 C.ar      1 <0>        -0.1357
     14 C10        -5.2860    4.9169    0.6957 C.ar      1 <0>         0.0690
     15 C11        -4.6744    6.1165    1.0675 C.ar      1 <0>        -0.1508
     16 C12        -3.4136    6.4364    0.5598 C.ar      1 <0>         0.0267
     17 C13        -5.3583    7.0425    1.9940 C.2       1 <0>         0.5591
     18 O3         -6.4559    6.7612    2.4343 O.2       1 <0>        -0.5006
     19 N2         -4.7652    8.1989    2.3509 N.am      1 <0>        -0.7172
     20 C14        -5.4432    9.1169    3.2694 C.3       1 <0>         0.1481
     21 H1         -6.5182    9.0759    3.0938 H         1 <0>         0.1174
     22 C15        -5.1466    8.6998    4.7194 C.3       1 <0>        -0.1469
     23 C16        -5.6067    9.8507    5.6586 C.3       1 <0>        -0.5692
     24 S2         -5.0437   11.3164    4.6944 S.o2      1 <0>         2.3767
     25 O4         -3.7377   11.6776    5.1227 O.2       1 <0>        -0.9274
     26 O5         -6.0754   12.2936    4.6940 O.2       1 <0>        -0.9293
     27 C17        -4.9368   10.5584    3.0222 C.3       1 <0>        -0.6020
     28 Cl1        -6.8536    4.5090    1.3202 Cl        1 <0>        -0.0048
     29 C18         0.2752    3.8413    4.7280 C.3       1 <0>         0.5082
     30 F1          0.3432    4.4269    5.9967 F         1 <0>        -0.1735
     31 F2         -0.8538    3.0185    4.6541 F         1 <0>        -0.1745
     32 F3          1.4251    3.0763    4.5052 F         1 <0>        -0.1738
     33 H2          0.0647    8.2822    3.4008 H         1 <0>         0.1484
     34 H3          0.2323    6.5140    5.1046 H         1 <0>         0.1456
     35 H4          0.1070    3.5416    2.0499 H         1 <0>         0.1422
     36 H5         -0.0663    7.6882    1.0163 H         1 <0>         0.1671
     37 H6          0.5311    4.5691   -0.3409 H         1 <0>         0.4332
     38 H7         -2.8952    3.7088   -1.3536 H         1 <0>         0.1575
     39 H8         -5.1111    3.1281   -0.4593 H         1 <0>         0.1566
     40 H9         -2.9350    7.3621    0.8434 H         1 <0>         0.1516
     41 H10        -3.8894    8.4234    1.9995 H         1 <0>         0.4043
     42 H11        -5.6943    7.7886    4.9598 H         1 <0>         0.1092
     43 H12        -4.0770    8.5291    4.8419 H         1 <0>         0.0937
     44 H13        -5.1032    9.7967    6.6238 H         1 <0>         0.1468
     45 H14        -6.6898    9.8522    5.7816 H         1 <0>         0.1441
     46 H15        -3.9064   10.5504    2.6666 H         1 <0>         0.1472
     47 H16        -5.5836   11.0796    2.3164 H         1 <0>         0.1521
@<TRIPOS>BOND
     1    1    6 ar
     2    1    2 ar
     3    1   33 1
     4    2    3 ar
     5    2   34 1
     6    3    4 ar
     7    3   29 1
     8    4    5 ar
     9    4   35 1
    10    5    6 ar
    11    5    7 1
    12    6   36 1
    13    7    8 1
    14    7   37 1
    15    8    9 2
    16    8   10 2
    17    8   11 1
    18   11   16 ar
    19   11   12 ar
    20   12   13 ar
    21   12   38 1
    22   13   14 ar
    23   13   39 1
    24   14   15 ar
    25   14   28 1
    26   15   16 ar
    27   15   17 1
    28   16   40 1
    29   17   18 2
    30   17   19 am
    31   19   20 1
    32   19   41 1
    33   20   21 1
    34   20   27 1
    35   20   22 1
    36   22   23 1
    37   22   42 1
    38   22   43 1
    39   23   24 1
    40   23   44 1
    41   23   45 1
    42   24   25 2
    43   24   26 2
    44   24   27 1
    45   27   46 1
    46   27   47 1
    47   29   30 1
    48   29   31 1
    49   29   32 1
@<TRIPOS>MOLECULE
ZINC29788829
   59    62     0     0     0
SMALL
USER_CHARGES
(2S)-2-(2,3-dihydro-1,4-benzodioxin-6-ylsulfonylamino)-4-methylsulfanyl-N-[(6S)-6-methyl-4,5,6,7-tetrahydro-1,3-benzothiazol-2-yl]butanamide
@<TRIPOS>ATOM
      1 C1          0.7821   -0.1134  -11.8456 C.3       1 <0>        -0.1495
      2 C2          1.0160   -0.1291  -10.3337 C.3       1 <0>        -0.0858
      3 H1          0.0636    0.0804   -9.8248 H         1 <0>         0.0767
      4 C3          1.5417   -1.5034   -9.9096 C.3       1 <0>        -0.1164
      5 C4          1.5434   -1.6181   -8.3843 C.3       1 <0>        -0.0420
      6 C5          2.2943   -0.4254   -7.8037 C.2       1 <0>         0.0915
      7 C6          2.4954    0.6884   -8.5551 C.2       1 <0>        -0.2053
      8 S1          3.3919    1.7461   -7.4508 S.3       1 <0>         0.0535
      9 C7          3.4333    0.6548   -6.0982 C.2       1 <0>         0.3114
     10 N1          2.7927   -0.3945   -6.5703 N.2       1 <0>        -0.5138
     11 N2          4.0016    0.8398   -4.8433 N.am      1 <0>        -0.6324
     12 C8          3.9272   -0.1382   -3.9189 C.2       1 <0>         0.4979
     13 O1          3.3643   -1.1798   -4.1821 O.2       1 <0>        -0.4538
     14 C9          4.5434    0.0624   -2.5584 C.3       1 <0>         0.1527
     15 H2          4.0520    0.9033   -2.0471 H         1 <0>         0.1212
     16 C10         6.0449    0.3136   -2.7106 C.3       1 <0>        -0.1031
     17 C11         6.6469    0.6490   -1.3445 C.3       1 <0>        -0.0891
     18 S2          8.4467    0.8134   -1.5008 S.3       1 <0>        -0.2643
     19 C12         8.9993    1.2060    0.1818 C.3       1 <0>        -0.1226
     20 N3          4.3289   -1.1361   -1.7436 N.pl3     1 <0>        -1.1009
     21 S3          3.3699   -1.0602   -0.3957 S.o2      1 <0>         2.6953
     22 O2          3.8035    0.0702    0.3481 O.2       1 <0>        -0.9489
     23 O3          3.3403   -2.3695    0.1559 O.2       1 <0>        -0.9461
     24 C13         1.7321   -0.7063   -0.9408 C.ar      1 <0>        -0.6837
     25 C14         0.8679   -1.7412   -1.2467 C.ar      1 <0>        -0.0031
     26 C15        -0.4166   -1.4676   -1.6767 C.ar      1 <0>        -0.1311
     27 C16        -0.8423   -0.1535   -1.8022 C.ar      1 <0>         0.1109
     28 C17         0.0254    0.8867   -1.4917 C.ar      1 <0>         0.0309
     29 C18         1.3138    0.6052   -1.0622 C.ar      1 <0>        -0.0206
     30 O4         -0.3746    2.1831   -1.5999 O.3       1 <0>        -0.3035
     31 C19        -1.5435    2.4324   -2.3882 C.3       1 <0>         0.0163
     32 C20        -2.6199    1.4148   -1.9871 C.3       1 <0>         0.0152
     33 O5         -2.1075    0.1005   -2.2350 O.3       1 <0>        -0.2997
     34 C21         2.0588    0.9359   -9.9590 C.3       1 <0>        -0.0266
     35 H3          0.0353   -0.8769  -12.1090 H         1 <0>         0.0606
     36 H4          1.7272   -0.3302  -12.3651 H         1 <0>         0.0580
     37 H5          0.4156    0.8782  -12.1496 H         1 <0>         0.0582
     38 H6          0.8960   -2.2886  -10.3298 H         1 <0>         0.0766
     39 H7          2.5683   -1.6344  -10.2825 H         1 <0>         0.0685
     40 H8          0.5070   -1.6218   -8.0157 H         1 <0>         0.0813
     41 H9          2.0414   -2.5529   -8.0874 H         1 <0>         0.0845
     42 H10         4.5121    1.7845   -4.6046 H         1 <0>         0.4541
     43 H11         6.5287   -0.5887   -3.1130 H         1 <0>         0.0952
     44 H12         6.2079    1.1553   -3.3998 H         1 <0>         0.0912
     45 H13         6.2225    1.5959   -0.9793 H         1 <0>         0.0922
     46 H14         6.4127   -0.1564   -0.6328 H         1 <0>         0.0909
     47 H15        10.0927    1.3263    0.1899 H         1 <0>         0.1042
     48 H16         8.7152    0.3888    0.8611 H         1 <0>         0.0795
     49 H17         8.5251    2.1411    0.5147 H         1 <0>         0.0796
     50 H18         4.6644   -2.1175   -2.1100 H         1 <0>         0.4554
     51 H19         1.1974   -2.7651   -1.1498 H         1 <0>         0.1509
     52 H20        -1.0896   -2.2778   -1.9155 H         1 <0>         0.1466
     53 H21         1.9910    1.4118   -0.8230 H         1 <0>         0.1493
     54 H22        -1.9017    3.4552   -2.1995 H         1 <0>         0.1299
     55 H23        -1.2973    2.3211   -3.4545 H         1 <0>         0.0799
     56 H24        -2.8567    1.5332   -0.9194 H         1 <0>         0.0856
     57 H25        -3.5272    1.5859   -2.5850 H         1 <0>         0.1304
     58 H26         2.9191    0.8624  -10.6405 H         1 <0>         0.0848
     59 H27         1.6084    1.9359  -10.0436 H         1 <0>         0.0811
@<TRIPOS>BOND
     1    1    2 1
     2    1   35 1
     3    1   36 1
     4    1   37 1
     5    2    3 1
     6    2   34 1
     7    2    4 1
     8    4    5 1
     9    4   38 1
    10    4   39 1
    11    5    6 1
    12    5   40 1
    13    5   41 1
    14    6   10 1
    15    6    7 2
    16    7    8 1
    17    7   34 1
    18    8    9 1
    19    9   10 2
    20    9   11 1
    21   11   12 am
    22   11   42 1
    23   12   13 2
    24   12   14 1
    25   14   15 1
    26   14   16 1
    27   14   20 1
    28   16   17 1
    29   16   43 1
    30   16   44 1
    31   17   18 1
    32   17   45 1
    33   17   46 1
    34   18   19 1
    35   19   47 1
    36   19   48 1
    37   19   49 1
    38   20   21 1
    39   20   50 1
    40   21   22 2
    41   21   23 2
    42   21   24 1
    43   24   29 ar
    44   24   25 ar
    45   25   26 ar
    46   25   51 1
    47   26   27 ar
    48   26   52 1
    49   27   33 1
    50   27   28 ar
    51   28   29 ar
    52   28   30 1
    53   29   53 1
    54   30   31 1
    55   31   32 1
    56   31   54 1
    57   31   55 1
    58   32   33 1
    59   32   56 1
    60   32   57 1
    61   34   58 1
    62   34   59 1
@<TRIPOS>MOLECULE
ZINC39544001
   50    53     0     0     0
SMALL
NO_CHARGES

@<TRIPOS>ATOM
      1 C1         -0.2797    0.9273    0.7885 C.3       1 <0>        -0.1758
      2 C2          1.0035    0.1459    1.0781 C.3       1 <0>         0.1125
      3 N1          1.4596   -0.5153   -0.1471 N.am      1 <0>        -0.5785
      4 C3          2.0468    0.2052   -1.1231 C.2       1 <0>         0.5209
      5 O1          2.1976    1.4009   -0.9871 O.2       1 <0>        -0.4577
      6 C4          2.5160   -0.4749   -2.3834 C.3       1 <0>         0.0139
      7 H1          2.1363   -1.4956   -2.4295 H         1 <0>         0.1525
      8 C5          2.0722    0.3228   -3.6247 C.3       1 <0>        -0.0181
      9 C6          3.3705    0.7421   -4.2768 C.2       1 <0>        -0.7745
     10 C7          4.3768    0.2826   -3.5780 C.2       1 <0>         0.0980
     11 N2          5.7399    0.4984   -3.8511 N.pl3     1 <0>        -0.6170
     12 C8          6.5516    0.6611   -2.7152 C.ar      1 <0>         0.1947
     13 C9          7.8901    0.9934   -2.8655 C.ar      1 <0>        -0.1684
     14 C10         8.6899    1.1437   -1.7493 C.ar      1 <0>        -0.0637
     15 C11         8.1523    0.9620   -0.4879 C.ar      1 <0>        -0.1717
     16 C12         6.8185    0.6351   -0.3383 C.ar      1 <0>        -0.0561
     17 C13         6.0068    0.4868   -1.4510 C.ar      1 <0>        -0.1967
     18 C14         4.5510    0.1551   -1.2548 C.3       1 <0>         0.0165
     19 N3          3.9861   -0.4675   -2.4569 N.4       1 <0>        -0.2830
     20 S1          3.5069    1.6998   -5.7495 S.o2      1 <0>         2.5645
     21 O2          2.4704    2.6705   -5.7002 O.2       1 <0>        -0.9641
     22 O3          4.8770    2.0541   -5.8780 O.2       1 <0>        -0.9911
     23 O4          3.1847    0.7782   -6.9171 O.3       1 <0>        -0.6826
     24 C15         4.1853   -0.0858   -7.2319 C.ar      1 <0>         0.1011
     25 C16         5.1340    0.2659   -8.1812 C.ar      1 <0>        -0.1169
     26 C17         6.1505   -0.6140   -8.4990 C.ar      1 <0>        -0.0993
     27 C18         6.2226   -1.8443   -7.8724 C.ar      1 <0>        -0.1322
     28 C19         5.2781   -2.1974   -6.9263 C.ar      1 <0>        -0.1030
     29 C20         4.2632   -1.3186   -6.6004 C.ar      1 <0>        -0.1445
     30 Br1         1.2296   -2.3392   -0.3545 Br        1 <0>         0.1669
     31 H2         -0.0833    1.6773    0.0224 H         1 <0>         0.0703
     32 H3         -1.0509    0.2419    0.4368 H         1 <0>         0.0636
     33 H4         -0.6190    1.4192    1.7001 H         1 <0>         0.0807
     34 H5          1.7747    0.8312    1.4298 H         1 <0>         0.0953
     35 H6          0.8071   -0.6042    1.8442 H         1 <0>         0.0983
     36 H7          1.4935   -0.3095   -4.2981 H         1 <0>         0.0977
     37 H8          1.4933    1.1979   -3.3294 H         1 <0>         0.1046
     38 H9          8.3058    1.1338   -3.8524 H         1 <0>         0.1302
     39 H10         9.7325    1.4022   -1.8612 H         1 <0>         0.1278
     40 H11         8.7786    1.0758    0.3845 H         1 <0>         0.1243
     41 H12         6.4069    0.4942    0.6502 H         1 <0>         0.1226
     42 H13         4.4507   -0.5345   -0.4166 H         1 <0>         0.1125
     43 H14         4.0022    1.0702   -1.0320 H         1 <0>         0.1527
     44 H15         5.0776    1.2265   -8.6714 H         1 <0>         0.1309
     45 H16         6.8892   -0.3407   -9.2379 H         1 <0>         0.1300
     46 H17         7.0179   -2.5309   -8.1225 H         1 <0>         0.1253
     47 H18         5.3365   -3.1591   -6.4385 H         1 <0>         0.1258
     48 H19         3.5283   -1.5930   -5.8582 H         1 <0>         0.1277
     49 H20         6.0927    0.5320   -4.7541 H         1 <0>         0.4397
     50 H21         4.3270   -1.4133   -2.5427 H         1 <0>         0.3935
@<TRIPOS>BOND
     1    1    2 1
     2    1   31 1
     3    1   32 1
     4    1   33 1
     5    2    3 1
     6    2   34 1
     7    2   35 1
     8    3    4 am
     9    3   30 1
    10    4    5 2
    11    4    6 1
    12    6    7 1
    13    6   19 1
    14    6    8 1
    15    8    9 1
    16    8   36 1
    17    8   37 1
    18    9   10 2
    19    9   20 1
    20   10   19 1
    21   10   11 1
    22   11   12 1
    23   11   49 1
    24   12   17 ar
    25   12   13 ar
    26   13   14 ar
    27   13   38 1
    28   14   15 ar
    29   14   39 1
    30   15   16 ar
    31   15   40 1
    32   16   17 ar
    33   16   41 1
    34   17   18 1
    35   18   19 1
    36   18   42 1
    37   18   43 1
    38   19   50 1
    39   20   21 2
    40   20   22 2
    41   20   23 1
    42   23   24 1
    43   24   29 ar
    44   24   25 ar
    45   25   26 ar
    46   25   44 1
    47   26   27 ar
    48   26   45 1
    49   27   28 ar
    50   27   46 1
    51   28   29 ar
    52   28   47 1
    53   29   48 1
@<TRIPOS>MOLECULE
ZINC39935438
   59    62     0     0     0
SMALL
USER_CHARGES

@<TRIPOS>ATOM
      1 C1          0.0175    1.6234   -0.0226 C.3       1 <0>        -0.1418
      2 C2          0.0477    0.0943    0.0192 C.3       1 <0>         0.0542
      3 N1          0.6246   -0.4184   -1.2307 N.3       1 <0>        -0.5037
      4 C3          0.3419   -1.8508   -1.3924 C.3       1 <0>         0.1127
      5 C4         -1.1406   -2.0530   -1.5724 C.2       1 <0>         0.4426
      6 N2         -1.9283   -1.0013   -1.5675 N.2       1 <0>        -0.5708
      7 C5         -3.2509   -1.1080   -1.7216 C.2       1 <0>         0.5379
      8 O1         -3.9635   -0.1160   -1.7141 O.2       1 <0>        -0.4461
      9 C6         -3.8356   -2.4652   -1.9033 C.2       1 <0>        -0.3067
     10 C7         -5.1746   -2.7875   -2.0780 C.2       1 <0>         0.1731
     11 C8         -5.5001   -4.2557   -2.2409 C.3       1 <0>        -0.0980
     12 S1         -3.8282   -5.0093   -2.1231 S.3       1 <0>         0.0098
     13 C9         -2.8862   -3.5216   -1.8909 C.2       1 <0>         0.2818
     14 N3         -1.6007   -3.2811   -1.7347 N.2       1 <0>        -0.5388
     15 C10        -6.1709   -1.8057   -2.1016 C.2       1 <0>        -0.2430
     16 C11        -7.0159   -1.4294   -3.1539 C.2       1 <0>        -0.0722
     17 C12        -7.8988   -0.4249   -2.8707 C.2       1 <0>        -0.1904
     18 C13        -7.9001    0.1270   -1.6255 C.2       1 <0>        -0.1978
     19 S2         -6.7024   -0.7116   -0.7980 S.3       1 <0>         0.2842
     20 C14        -8.7808    1.2339   -1.1057 C.3       1 <0>        -0.0757
     21 C15         2.0690   -0.1569   -1.2901 C.3       1 <0>         0.0350
     22 C16         2.5525   -0.3275   -2.7072 C.2       1 <0>         0.5118
     23 O2          1.7897   -0.7185   -3.5653 O.2       1 <0>        -0.4973
     24 N4          3.8326   -0.0457   -3.0209 N.am      1 <0>        -0.6767
     25 C17         4.2530   -0.0924   -4.3563 C.ar      1 <0>         0.1351
     26 C18         3.3860    0.2913   -5.3710 C.ar      1 <0>        -0.0982
     27 C19         3.8003    0.2453   -6.6870 C.ar      1 <0>        -0.1242
     28 C20         5.0840   -0.1846   -6.9961 C.ar      1 <0>         0.1279
     29 C21         5.9510   -0.5683   -5.9815 C.ar      1 <0>        -0.0998
     30 C22         5.5386   -0.5169   -4.6650 C.ar      1 <0>        -0.1251
     31 N5          5.5042   -0.2317   -8.3315 N.am      1 <0>        -0.6746
     32 C23         6.3445   -1.2032   -8.7397 C.2       1 <0>         0.5093
     33 O3          6.6575   -2.0939   -7.9781 O.2       1 <0>        -0.5265
     34 C24         6.8953   -1.1829  -10.1423 C.3       1 <0>        -0.1704
     35 H1          1.0377    2.0065   -0.0463 H         1 <0>         0.0469
     36 H2         -0.5149    1.9521   -0.9152 H         1 <0>         0.0697
     37 H3         -0.4919    2.0011    0.8640 H         1 <0>         0.0576
     38 H4          0.6562   -0.2342    0.8618 H         1 <0>         0.0300
     39 H5         -0.9672   -0.2862    0.1338 H         1 <0>         0.0921
     40 H6          0.8691   -2.2286   -2.2685 H         1 <0>         0.1251
     41 H7          0.6772   -2.3896   -0.5062 H         1 <0>         0.0733
     42 H8         -6.1453   -4.6057   -1.4351 H         1 <0>         0.1629
     43 H9         -5.9504   -4.4515   -3.2141 H         1 <0>         0.1616
     44 H10        -6.9723   -1.9014   -4.1243 H         1 <0>         0.1443
     45 H11        -8.5867   -0.0729   -3.6253 H         1 <0>         0.1371
     46 H12        -9.6852    0.8059   -0.6732 H         1 <0>         0.0828
     47 H13        -8.2442    1.7970   -0.3422 H         1 <0>         0.0765
     48 H14        -9.0501    1.8994   -1.9259 H         1 <0>         0.0840
     49 H15         2.2676    0.8623   -0.9586 H         1 <0>         0.1150
     50 H16         2.5922   -0.8586   -0.6406 H         1 <0>         0.0722
     51 H17         4.4628    0.1895   -2.3220 H         1 <0>         0.4104
     52 H18         2.3875    0.6254   -5.1305 H         1 <0>         0.1382
     53 H19         3.1259    0.5434   -7.4761 H         1 <0>         0.1286
     54 H20         6.9493   -0.9031   -6.2219 H         1 <0>         0.1358
     55 H21         6.2145   -0.8107   -3.8756 H         1 <0>         0.1295
     56 H22         5.1905    0.4348   -8.9625 H         1 <0>         0.4115
     57 H23         6.5051   -0.3146  -10.6733 H         1 <0>         0.0786
     58 H24         7.9832   -1.1271  -10.1047 H         1 <0>         0.0997
     59 H25         6.5960   -2.0922  -10.6634 H         1 <0>         0.0988
@<TRIPOS>BOND
     1    1    2 1
     2    1   35 1
     3    1   36 1
     4    1   37 1
     5    2    3 1
     6    2   38 1
     7    2   39 1
     8    3    4 1
     9    3   21 1
    10    4    5 1
    11    4   40 1
    12    4   41 1
    13    5   14 1
    14    5    6 2
    15    6    7 1
    16    7    8 2
    17    7    9 1
    18    9   13 1
    19    9   10 2
    20   10   11 1
    21   10   15 1
    22   11   12 1
    23   11   42 1
    24   11   43 1
    25   12   13 1
    26   13   14 2
    27   15   19 1
    28   15   16 2
    29   16   17 1
    30   16   44 1
    31   17   18 2
    32   17   45 1
    33   18   19 1
    34   18   20 1
    35   20   46 1
    36   20   47 1
    37   20   48 1
    38   21   22 1
    39   21   49 1
    40   21   50 1
    41   22   23 2
    42   22   24 am
    43   24   25 1
    44   24   51 1
    45   25   30 ar
    46   25   26 ar
    47   26   27 ar
    48   26   52 1
    49   27   28 ar
    50   27   53 1
    51   28   29 ar
    52   28   31 1
    53   29   30 ar
    54   29   54 1
    55   30   55 1
    56   31   32 am
    57   31   56 1
    58   32   33 2
    59   32   34 1
    60   34   57 1
    61   34   58 1
    62   34   59 1
@<TRIPOS>MOLECULE
ZINC04200215
   38    41     0     0     0
SMALL
USER_CHARGES

@<TRIPOS>ATOM
      1 C1          1.2101   -0.8552   -0.3944 C.3       1 <0>        -0.1564
      2 C2          0.0021   -0.0041    0.0020 C.3       1 <0>         0.1976
      3 H1         -0.0165    0.9036   -0.6013 H         1 <0>         0.1024
      4 C3         -1.2634   -0.7884   -0.2314 C.ar      1 <0>        -0.0725
      5 C4         -1.4395   -2.0145    0.3824 C.ar      1 <0>        -0.1055
      6 C5         -2.6001   -2.7341    0.1689 C.ar      1 <0>        -0.0921
      7 C6         -3.5856   -2.2271   -0.6590 C.ar      1 <0>        -0.0911
      8 C7         -3.4089   -1.0002   -1.2729 C.ar      1 <0>        -0.0891
      9 C8         -2.2502   -0.2790   -1.0547 C.ar      1 <0>        -0.0956
     10 Br1        -5.1734   -3.2114   -0.9519 Br        1 <0>        -0.0598
     11 N1          0.1006    0.3535    1.4193 N.am      1 <0>        -0.6428
     12 C9          0.2788   -0.6183    2.5435 C.3       1 <0>         0.1508
     13 C10        -0.2848    0.1436    3.7027 C.3       1 <0>         0.0916
     14 C11        -1.7956    0.2757    3.6424 C.2       1 <0>        -0.1827
     15 C12        -2.1403    0.9567    4.7254 C.2       1 <0>        -0.1412
     16 C13        -0.8156    1.2952    5.4202 C.3       1 <0>         0.1057
     17 H2         -0.8797    1.5481    6.4785 H         1 <0>         0.1359
     18 O1          0.0052    0.1009    5.0801 O.3       1 <0>        -0.3396
     19 C14        -0.2207    2.4105    4.4757 C.3       1 <0>        -0.1572
     20 H3          0.5617    2.9757    4.9821 H         1 <0>         0.0819
     21 C15         0.3591    1.5460    3.3563 C.3       1 <0>        -0.1472
     22 H4          1.4401    1.4751    3.4768 H         1 <0>         0.0927
     23 C16         0.0492    1.6326    1.9185 C.2       1 <0>         0.5470
     24 O2         -0.2050    2.6413    1.2950 O.2       1 <0>        -0.4386
     25 C17        -1.3053    3.3268    3.9707 C.2       1 <0>         0.4979
     26 O3         -1.9612    3.9871    4.7583 O.co2     1 <0>        -0.7052
     27 O4         -1.5269    3.4079    2.7745 O.co2     1 <0>        -0.6496
     28 H5          2.1254   -0.2879   -0.2255 H         1 <0>         0.0654
     29 H6          1.2287   -1.7629    0.2089 H         1 <0>         0.0603
     30 H7          1.1368   -1.1213   -1.4488 H         1 <0>         0.0674
     31 H8         -0.6699   -2.4104    1.0284 H         1 <0>         0.1333
     32 H9         -2.7375   -3.6921    0.6482 H         1 <0>         0.1310
     33 H10        -4.1780   -0.6040   -1.9193 H         1 <0>         0.1317
     34 H11        -2.1139    0.6808   -1.5307 H         1 <0>         0.1338
     35 H12        -0.2896   -1.5307    2.3636 H         1 <0>         0.0861
     36 H13         1.3338   -0.8428    2.7008 H         1 <0>         0.0769
     37 H14        -2.4532   -0.1057    2.8754 H         1 <0>         0.1341
     38 H15        -3.1374    1.2172    5.0485 H         1 <0>         0.1426
@<TRIPOS>BOND
     1    1    2 1
     2    1   28 1
     3    1   29 1
     4    1   30 1
     5    2    3 1
     6    2    4 1
     7    2   11 1
     8    4    9 ar
     9    4    5 ar
    10    5    6 ar
    11    5   31 1
    12    6    7 ar
    13    6   32 1
    14    7    8 ar
    15    7   10 1
    16    8    9 ar
    17    8   33 1
    18    9   34 1
    19   11   23 am
    20   11   12 1
    21   12   13 1
    22   12   35 1
    23   12   36 1
    24   13   18 1
    25   13   21 1
    26   13   14 1
    27   14   15 2
    28   14   37 1
    29   15   16 1
    30   15   38 1
    31   16   17 1
    32   16   18 1
    33   16   19 1
    34   19   20 1
    35   19   21 1
    36   19   25 1
    37   21   22 1
    38   21   23 1
    39   23   24 2
    40   25   26 2
    41   25   27 1
@<TRIPOS>MOLECULE
ZINC49003940
   24    25     0     0     0
SMALL
USER_CHARGES

@<TRIPOS>ATOM
      1 C1         -0.0225    1.8097    0.0120 C.3       1 <0>        -0.6503
      2 S1          0.0021   -0.0041    0.0020 S.o2      1 <0>         2.5775
      3 O1          0.8352   -0.4880    1.0465 O.2       1 <0>        -1.0023
      4 O2         -1.3147   -0.5105   -0.1678 O.2       1 <0>        -1.0023
      5 N1          0.7947   -0.4113   -1.3938 N.2       1 <0>        -1.0724
      6 C2          0.9786   -1.6645   -1.6963 C.2       1 <0>         0.5469
      7 O3          0.5222   -2.6337   -0.8702 O.3       1 <0>        -0.6810
      8 C3          1.6852   -2.0274   -2.9405 C.2       1 <0>         0.0821
      9 C4          2.1562   -1.0496   -3.7820 C.2       1 <0>        -0.1127
     10 S2          2.8917   -2.0467   -5.0712 S.3       1 <0>         0.0059
     11 C5          2.5030   -3.6437   -4.3690 C.2       1 <0>         0.1501
     12 N2          1.8765   -3.2986   -3.2547 N.2       1 <0>        -0.4345
     13 C6          2.8040   -4.9865   -4.8891 C.2       1 <0>        -0.0589
     14 C7          3.4632   -5.3403   -6.0392 C.2       1 <0>        -0.1310
     15 C8          3.6290   -6.6768   -6.3215 C.2       1 <0>        -0.1345
     16 C9          3.1365   -7.6029   -5.4554 C.2       1 <0>        -0.1385
     17 S3          2.4136   -6.5795   -4.1838 S.3       1 <0>         0.1927
     18 Cl1         3.1997   -9.3347   -5.5576 Cl        1 <0>         0.0138
     19 H1          1.0001    2.1870    0.0043 H         1 <0>         0.1173
     20 H2         -0.5497    2.1708   -0.8711 H         1 <0>         0.1173
     21 H3         -0.5327    2.1613    0.9088 H         1 <0>         0.1067
     22 H4          2.0981    0.0249   -3.6905 H         1 <0>         0.2160
     23 H5          3.8442   -4.5846   -6.7101 H         1 <0>         0.1468
     24 H6          4.1433   -6.9865   -7.2193 H         1 <0>         0.1455
@<TRIPOS>BOND
     1    1    2 1
     2    1   19 1
     3    1   20 1
     4    1   21 1
     5    2    3 2
     6    2    4 2
     7    2    5 1
     8    5    6 2
     9    6    7 1
    10    6    8 1
    11    8   12 1
    12    8    9 2
    13    9   10 1
    14    9   22 1
    15   10   11 1
    16   11   12 2
    17   11   13 1
    18   13   17 1
    19   13   14 2
    20   14   15 1
    21   14   23 1
    22   15   16 2
    23   15   24 1
    24   16   17 1
    25   16   18 1
@<TRIPOS>MOLECULE
ZINC54124125
   40    42     0     0     0
SMALL
USER_CHARGES

@<TRIPOS>ATOM
      1 C1         -0.0184    1.5028    0.0103 C.3       1 <0>        -0.1197
      2 C2          0.0021   -0.0041    0.0020 C.ar      1 <0>        -0.0587
      3 C3          0.0056   -0.6858   -1.2025 C.ar      1 <0>        -0.1355
      4 C4          0.0238   -2.0645   -1.2184 C.ar      1 <0>        -0.0594
      5 C5          0.0392   -2.7739   -0.0132 C.ar      1 <0>        -0.1706
      6 C6          0.0359   -2.0776    1.1997 C.ar      1 <0>        -0.0668
      7 C7          0.0229   -0.6988    1.1989 C.ar      1 <0>        -0.1349
      8 C8          0.0582   -4.2454   -0.0213 C.2       1 <0>         0.3989
      9 O1          0.0605   -4.8459   -1.0747 O.2       1 <0>        -0.4470
     10 C9          0.0747   -5.0059    1.2796 C.3       1 <0>        -0.1211
     11 C10         1.5163   -5.1346    1.7767 C.3       1 <0>        -0.1263
     12 C11         1.5259   -5.8778    3.1162 C.3       1 <0>         0.1544
     13 N1          0.8280   -7.1601    2.9506 N.pl3     1 <0>        -0.6654
     14 C12        -0.5318   -7.1576    2.3942 C.3       1 <0>         0.1524
     15 C13        -0.5183   -6.4000    1.0627 C.3       1 <0>        -0.1262
     16 C14         1.4441   -8.3557    3.3139 C.ar      1 <0>         0.1935
     17 C15         1.3075   -8.8740    4.6022 C.ar      1 <0>        -0.0922
     18 N2          1.9000  -10.0063    4.9193 N.ar      1 <0>        -0.2023
     19 N3          2.6113  -10.6676    4.0810 N.ar      1 <0>        -0.3515
     20 C16         2.8008  -10.2588    2.8358 C.ar      1 <0>         0.3703
     21 O2          3.5623  -10.9943    1.9864 O.3       1 <0>        -0.6783
     22 C17         2.2130   -9.0765    2.3995 C.ar      1 <0>        -0.1472
     23 Cl1         2.4336   -8.5127    0.7726 Cl        1 <0>        -0.0731
     24 H1          1.0042    1.8801    0.0026 H         1 <0>         0.0744
     25 H2         -0.5455    1.8639   -0.8728 H         1 <0>         0.0684
     26 H3         -0.5286    1.8543    0.9071 H         1 <0>         0.0692
     27 H4         -0.0062   -0.1366   -2.1323 H         1 <0>         0.1266
     28 H5          0.0259   -2.5951   -2.1591 H         1 <0>         0.1322
     29 H6          0.0473   -2.6184    2.1344 H         1 <0>         0.1349
     30 H7          0.0248   -0.1596    2.1346 H         1 <0>         0.1282
     31 H8         -0.5184   -4.4703    2.0209 H         1 <0>         0.0939
     32 H9          2.1043   -5.6917    1.0473 H         1 <0>         0.0762
     33 H10         1.9457   -4.1414    1.9086 H         1 <0>         0.0693
     34 H11         2.5551   -6.0593    3.4261 H         1 <0>         0.0716
     35 H12         1.0154   -5.2786    3.8702 H         1 <0>         0.0513
     36 H13        -0.8603   -8.1834    2.2276 H         1 <0>         0.0706
     37 H14        -1.2101   -6.6628    3.0893 H         1 <0>         0.0498
     38 H15        -1.5371   -6.3075    0.6865 H         1 <0>         0.0654
     39 H16         0.0888   -6.9452    0.3401 H         1 <0>         0.0810
     40 H17         0.7173   -8.3475    5.3376 H         1 <0>         0.1438
@<TRIPOS>BOND
     1    1    2 1
     2    1   24 1
     3    1   25 1
     4    1   26 1
     5    2    7 ar
     6    2    3 ar
     7    3    4 ar
     8    3   27 1
     9    4    5 ar
    10    4   28 1
    11    5    6 ar
    12    5    8 1
    13    6    7 ar
    14    6   29 1
    15    7   30 1
    16    8    9 2
    17    8   10 1
    18   10   15 1
    19   10   11 1
    20   10   31 1
    21   11   12 1
    22   11   32 1
    23   11   33 1
    24   12   13 1
    25   12   34 1
    26   12   35 1
    27   13   14 1
    28   13   16 1
    29   14   15 1
    30   14   36 1
    31   14   37 1
    32   15   38 1
    33   15   39 1
    34   16   22 ar
    35   16   17 ar
    36   17   18 ar
    37   17   40 1
    38   18   19 ar
    39   19   20 ar
    40   20   21 1
    41   20   22 ar
    42   22   23 1
@<TRIPOS>MOLECULE
ZINC62924722
   35    36     0     0     0
SMALL
USER_CHARGES

@<TRIPOS>ATOM
      1 C1          0.0728    1.4992   -0.2498 C.3       1 <0>        -0.1213
      2 C2          0.0705   -0.0067   -0.1931 C.ar      1 <0>        -0.0295
      3 C3          0.0342   -0.7424   -1.3632 C.ar      1 <0>        -0.1327
      4 C4          0.0320   -2.1236   -1.3119 C.ar      1 <0>        -0.0128
      5 C5          0.0662   -2.7701   -0.0905 C.ar      1 <0>        -0.6636
      6 C6          0.1030   -2.0347    1.0802 C.ar      1 <0>         0.0036
      7 C7          0.1104   -0.6522    1.0282 C.ar      1 <0>        -0.1137
      8 Br1         0.1491   -2.9185    2.7513 Br        1 <0>         0.0029
      9 S1          0.0623   -4.5309   -0.0251 S.o2      1 <0>         2.6964
     10 O1         -0.8633   -4.8976    0.9888 O.2       1 <0>        -0.9372
     11 O2         -0.0561   -4.9868   -1.3658 O.2       1 <0>        -0.9593
     12 N1          1.5578   -5.0045    0.5055 N.pl3     1 <0>        -0.9997
     13 C8          2.7654   -5.1321   -0.3305 C.3       1 <0>         0.1201
     14 C9          3.9492   -4.9781    0.6568 C.3       1 <0>        -0.1022
     15 C10         3.4055   -5.7108    1.9118 C.3       1 <0>        -0.1377
     16 C11         1.9026   -5.3613    1.8895 C.3       1 <0>         0.1358
     17 C12         3.6170   -7.2213    1.7908 C.3       1 <0>        -0.1177
     18 C13         4.0549   -5.1785    3.1631 C.2       1 <0>         0.5102
     19 O3          4.9046   -4.3075    3.0858 O.co2     1 <0>        -0.6909
     20 O4          3.7307   -5.6188    4.2528 O.co2     1 <0>        -0.6929
     21 H1          1.1004    1.8594   -0.2986 H         1 <0>         0.0815
     22 H2         -0.4707    1.8303   -1.1347 H         1 <0>         0.0737
     23 H3         -0.4097    1.8971    0.6429 H         1 <0>         0.0737
     24 H4          0.0071   -0.2376   -2.3176 H         1 <0>         0.1372
     25 H5          0.0033   -2.6979   -2.2261 H         1 <0>         0.1498
     26 H6          0.1430   -0.0775    1.9420 H         1 <0>         0.1414
     27 H7          2.7945   -6.1115   -0.8079 H         1 <0>         0.0690
     28 H8          2.7923   -4.3422   -1.0811 H         1 <0>         0.0642
     29 H9          4.8435   -5.4699    0.2741 H         1 <0>         0.0730
     30 H10         4.1445   -3.9276    0.8718 H         1 <0>         0.0827
     31 H11         1.7068   -4.5165    2.5498 H         1 <0>         0.0782
     32 H12         1.3183   -6.2252    2.2061 H         1 <0>         0.0665
     33 H13         4.6836   -7.4342    1.7196 H         1 <0>         0.0494
     34 H14         3.2053   -7.7174    2.6697 H         1 <0>         0.0590
     35 H15         3.1128   -7.5884    0.8969 H         1 <0>         0.0426
@<TRIPOS>BOND
     1    1    2 1
     2    1   21 1
     3    1   22 1
     4    1   23 1
     5    2    7 ar
     6    2    3 ar
     7    3    4 ar
     8    3   24 1
     9    4    5 ar
    10    4   25 1
    11    5    6 ar
    12    5    9 1
    13    6    7 ar
    14    6    8 1
    15    7   26 1
    16    9   10 2
    17    9   11 2
    18    9   12 1
    19   12   16 1
    20   12   13 1
    21   13   14 1
    22   13   27 1
    23   13   28 1
    24   14   15 1
    25   14   29 1
    26   14   30 1
    27   15   16 1
    28   15   17 1
    29   15   18 1
    30   16   31 1
    31   16   32 1
    32   17   33 1
    33   17   34 1
    34   17   35 1
    35   18   19 2
    36   18   20 1
@<TRIPOS>MOLECULE
ZINC66578385
   43    45     0     0     0
SMALL
USER_CHARGES

@<TRIPOS>ATOM
      1 C1         -0.0167    1.3780    0.0096 C.ar      1 <0>        -0.0621
      2 C2          1.1689    2.0897    0.0021 C.ar      1 <0>        -0.2234
      3 C3          2.3799    1.4232   -0.0130 C.ar      1 <0>        -0.0670
      4 C4          2.4083    0.0368   -0.0206 C.ar      1 <0>         0.0563
      5 C5          1.2127   -0.6811   -0.0131 C.ar      1 <0>         0.2947
      6 C6          0.0021   -0.0041    0.0020 C.ar      1 <0>        -0.2537
      7 N1          1.2343   -2.0799   -0.0212 N.2       1 <0>        -1.0821
      8 S1         -0.1869   -2.9299   -0.0122 S.o2      1 <0>         2.5249
      9 O1         -0.7955   -2.6056    1.2303 O.2       1 <0>        -1.0295
     10 O2         -0.8195   -2.5917   -1.2389 O.2       1 <0>        -1.0275
     11 C7          0.3128   -4.6737   -0.0270 C.3       1 <0>        -0.5550
     12 C8          1.2371   -4.9293   -1.2191 C.3       1 <0>        -0.0911
     13 C9          1.6586   -6.4000   -1.2315 C.3       1 <0>        -0.1125
     14 C10         0.4165   -7.2855   -1.3502 C.3       1 <0>        -0.1201
     15 C11        -0.5078   -7.0299   -0.1580 C.3       1 <0>        -0.1089
     16 C12        -0.9293   -5.5591   -0.1456 C.3       1 <0>        -0.1082
     17 N2          3.6350   -0.6409   -0.0364 N.am      1 <0>        -0.5304
     18 C13         4.3505   -1.0299   -1.2573 C.3       1 <0>         0.1078
     19 C14         5.7970   -1.3338   -0.8082 C.3       1 <0>        -0.1304
     20 C15         5.5927   -1.7150    0.6764 C.3       1 <0>        -0.1521
     21 C16         4.3100   -1.0132    1.0648 C.2       1 <0>         0.5187
     22 O3          3.9429   -0.8173    2.2041 O.2       1 <0>        -0.5382
     23 H1         -0.9600    1.9036    0.0260 H         1 <0>         0.1036
     24 H2          1.1487    3.1695    0.0077 H         1 <0>         0.1054
     25 H3          3.3039    1.9823   -0.0192 H         1 <0>         0.1046
     26 H4         -0.9257   -0.5568    0.0082 H         1 <0>         0.1028
     27 H5          0.8394   -4.9085    0.8980 H         1 <0>         0.1207
     28 H6          0.7105   -4.6944   -2.1441 H         1 <0>         0.0685
     29 H7          2.1220   -4.2984   -1.1345 H         1 <0>         0.0876
     30 H8          2.3171   -6.5821   -2.0808 H         1 <0>         0.0614
     31 H9          2.1852   -6.6349   -0.3065 H         1 <0>         0.0605
     32 H10        -0.1101   -7.0506   -2.2752 H         1 <0>         0.0615
     33 H11         0.7168   -8.3333   -1.3590 H         1 <0>         0.0583
     34 H12        -1.3927   -7.6607   -0.2426 H         1 <0>         0.0615
     35 H13         0.0188   -7.2648    0.7669 H         1 <0>         0.0625
     36 H14        -1.5878   -5.3770    0.7037 H         1 <0>         0.0676
     37 H15        -1.4559   -5.3243   -1.0706 H         1 <0>         0.0724
     38 H16         3.8963   -1.9195   -1.6936 H         1 <0>         0.0735
     39 H17         4.3431   -0.2105   -1.9761 H         1 <0>         0.0693
     40 H18         6.2131   -2.1689   -1.3717 H         1 <0>         0.0834
     41 H19         6.4280   -0.4498   -0.9006 H         1 <0>         0.0752
     42 H20         5.4883   -2.7948    0.7820 H         1 <0>         0.0988
     43 H21         6.4224   -1.3499    1.2817 H         1 <0>         0.0909
@<TRIPOS>BOND
     1    1    6 ar
     2    1    2 ar
     3    1   23 1
     4    2    3 ar
     5    2   24 1
     6    3    4 ar
     7    3   25 1
     8    4    5 ar
     9    4   17 1
    10    5    6 ar
    11    5    7 1
    12    6   26 1
    13    7    8 1
    14    8    9 2
    15    8   10 2
    16    8   11 1
    17   11   16 1
    18   11   12 1
    19   11   27 1
    20   12   13 1
    21   12   28 1
    22   12   29 1
    23   13   14 1
    24   13   30 1
    25   13   31 1
    26   14   15 1
    27   14   32 1
    28   14   33 1
    29   15   16 1
    30   15   34 1
    31   15   35 1
    32   16   36 1
    33   16   37 1
    34   17   21 am
    35   17   18 1
    36   18   19 1
    37   18   38 1
    38   18   39 1
    39   19   20 1
    40   19   40 1
    41   19   41 1
    42   20   21 1
    43   20   42 1
    44   20   43 1
    45   21   22 2
@<TRIPOS>MOLECULE
ZINC13256518
   49    52     0     0     0
SMALL
USER_CHARGES
(2R)-1-[2-[[(7R)-7-methyl-5,6,7,8-tetrahydrobenzothiopheno[3,2-e]pyrimidin-4-yl]sulfanyl]acetyl]piperidine-2-carboxylic acid
@<TRIPOS>ATOM
      1 C1          0.2281   -6.5429   -5.9422 C.3       1 <0>        -0.1461
      2 C2          0.1483   -5.0918   -5.4638 C.3       1 <0>        -0.0879
      3 H1          0.6833   -4.9881   -4.5198 H         1 <0>         0.0788
      4 C3         -1.3171   -4.6908   -5.2706 C.3       1 <0>        -0.1140
      5 C4         -1.3964   -3.3388   -4.5612 C.3       1 <0>        -0.0727
      6 C5         -0.5325   -2.3336   -5.3181 C.2       1 <0>        -0.0764
      7 C6          0.4199   -2.7521   -6.1762 C.2       1 <0>        -0.1411
      8 S1          1.1547   -1.2688   -6.8112 S.3       1 <0>         0.1023
      9 C7          0.1793   -0.0851   -5.9204 C.ar      1 <0>         0.1329
     10 C8         -0.6903   -0.8876   -5.1551 C.ar      1 <0>        -0.1742
     11 C9         -1.6047   -0.1791   -4.3262 C.ar      1 <0>         0.1900
     12 N1         -1.5812    1.1449   -4.3265 N.ar      1 <0>        -0.5396
     13 C10        -0.7356    1.8331   -5.0718 C.ar      1 <0>         0.3305
     14 N2          0.1353    1.2317   -5.8594 N.ar      1 <0>        -0.4960
     15 S2         -2.7521   -1.0517   -3.3131 S.3       1 <0>         0.0861
     16 C11        -3.6026    0.3410   -2.5301 C.3       1 <0>        -0.1564
     17 C12        -4.6604   -0.1797   -1.5915 C.2       1 <0>         0.5071
     18 O1         -4.8233   -1.3748   -1.4646 O.2       1 <0>        -0.4541
     19 N3         -5.4255    0.6826   -0.8933 N.am      1 <0>        -0.5941
     20 C13        -5.1809    2.1295   -0.9674 C.3       1 <0>         0.1061
     21 C14        -5.0159    2.6751    0.4545 C.3       1 <0>        -0.1323
     22 C15        -6.2371    2.2861    1.2909 C.3       1 <0>        -0.1179
     23 C16        -6.3401    0.7610    1.3676 C.3       1 <0>        -0.1177
     24 C17        -6.5237    0.1941   -0.0484 C.3       1 <0>         0.1005
     25 H2         -7.4767    0.5288   -0.4582 H         1 <0>         0.0682
     26 C18        -6.4923   -1.3118    0.0003 C.2       1 <0>         0.4873
     27 O2         -5.5745   -1.8797    0.5433 O.co2     1 <0>        -0.6192
     28 C19         0.7767   -4.1672   -6.5161 C.3       1 <0>        -0.0332
     29 H3          1.2718   -6.8197   -6.0905 H         1 <0>         0.0561
     30 H4         -0.2186   -7.1973   -5.1937 H         1 <0>         0.0610
     31 H5         -0.3122   -6.6453   -6.8833 H         1 <0>         0.0569
     32 H6         -1.8041   -4.6186   -6.2431 H         1 <0>         0.0679
     33 H7         -1.8225   -5.4452   -4.6675 H         1 <0>         0.0778
     34 H8         -1.0289   -3.4402   -3.5401 H         1 <0>         0.0898
     35 H9         -2.4302   -2.9938   -4.5467 H         1 <0>         0.0917
     36 H10        -0.7572    2.9123   -5.0353 H         1 <0>         0.2080
     37 H11        -2.8826    0.9383   -1.9706 H         1 <0>         0.1173
     38 H12        -4.0695    0.9591   -3.2969 H         1 <0>         0.1177
     39 H13        -4.2720    2.3177   -1.5388 H         1 <0>         0.0791
     40 H14        -6.0255    2.6184   -1.4529 H         1 <0>         0.0652
     41 H15        -4.1174    2.2526    0.9043 H         1 <0>         0.0658
     42 H16        -4.9292    3.7611    0.4197 H         1 <0>         0.0695
     43 H17        -6.1336    2.6941    2.2963 H         1 <0>         0.0604
     44 H18        -7.1379    2.6878    0.8269 H         1 <0>         0.0603
     45 H19        -5.4291    0.3566    1.8088 H         1 <0>         0.0717
     46 H20        -7.1962    0.4848    1.9832 H         1 <0>         0.0675
     47 H21         0.3877   -4.4168   -7.5033 H         1 <0>         0.0878
     48 H22         1.8604   -4.2844   -6.5083 H         1 <0>         0.0845
     49 O3         -7.4841   -2.0221   -0.5596 O.co2     1 <0>        -0.7731
@<TRIPOS>BOND
     1    1    2 1
     2    1   29 1
     3    1   30 1
     4    1   31 1
     5    2    3 1
     6    2   28 1
     7    2    4 1
     8    4    5 1
     9    4   32 1
    10    4   33 1
    11    5    6 1
    12    5   34 1
    13    5   35 1
    14    6   10 1
    15    6    7 2
    16    7    8 1
    17    7   28 1
    18    8    9 1
    19    9   14 ar
    20    9   10 ar
    21   10   11 ar
    22   11   12 ar
    23   11   15 1
    24   12   13 ar
    25   13   14 ar
    26   13   36 1
    27   15   16 1
    28   16   17 1
    29   16   37 1
    30   16   38 1
    31   17   18 2
    32   17   19 am
    33   19   24 1
    34   19   20 1
    35   20   21 1
    36   20   39 1
    37   20   40 1
    38   21   22 1
    39   21   41 1
    40   21   42 1
    41   22   23 1
    42   22   43 1
    43   22   44 1
    44   23   24 1
    45   23   45 1
    46   23   46 1
    47   24   25 1
    48   24   26 1
    49   26   27 2
    50   26   49 1
    51   28   47 1
    52   28   48 1
@<TRIPOS>MOLECULE
ZINC36370736
   58    61     0     0     0
SMALL
USER_CHARGES

@<TRIPOS>ATOM
      1 C1          0.1404    0.6639    0.7524 C.3       1 <0>        -0.1582
      2 C2          0.2027   -0.8261    0.5359 C.2       1 <0>         0.4650
      3 O1          0.2166   -1.5744    1.4845 O.2       1 <0>        -0.5263
      4 O2          0.2428   -1.3221   -0.7107 O.3       1 <0>        -0.3331
      5 C3          0.1925   -2.7427   -0.8451 C.3       1 <0>         0.0879
      6 H1          0.6917   -3.2009    0.0120 H         1 <0>         0.0828
      7 C4          0.9024   -3.1682   -2.1274 C.3       1 <0>        -0.1077
      8 C5          0.3035   -2.5037   -3.3623 C.3       1 <0>        -0.1082
      9 C6         -1.2137   -2.7367   -3.4149 C.3       1 <0>        -0.0021
     10 C7         -1.6217   -3.2446   -4.7769 C.3       1 <0>        -0.0617
     11 H2         -0.9679   -2.7707   -5.5213 H         1 <0>         0.0775
     12 C8         -3.0572   -2.9659   -5.1820 C.3       1 <0>        -0.1134
     13 C9         -3.2935   -3.3766   -6.6497 C.3       1 <0>        -0.1004
     14 C10        -2.9790   -4.8358   -6.8357 C.3       1 <0>        -0.1142
     15 C11        -1.5805   -5.1715   -6.2865 C.3       1 <0>        -0.0726
     16 H3         -0.8309   -4.6122   -6.9115 H         1 <0>         0.0709
     17 C12        -1.3575   -4.7696   -4.8625 C.3       1 <0>        -0.0635
     18 H4         -0.2989   -4.9454   -4.5838 H         1 <0>         0.0767
     19 C13        -2.2558   -5.4659   -3.8484 C.3       1 <0>        -0.0849
     20 C14        -1.9898   -4.8951   -2.4787 C.2       1 <0>        -0.1557
     21 C15        -1.5368   -3.6975   -2.2980 C.2       1 <0>        -0.1008
     22 C16        -1.2695   -3.2096   -0.8833 C.3       1 <0>        -0.1097
     23 C17        -1.4525   -6.6466   -6.6864 C.3       1 <0>        -0.1080
     24 C18        -2.0541   -6.6333   -8.1242 C.3       1 <0>        -0.1834
     25 C19        -2.7985   -5.3069   -8.2711 C.2       1 <0>         0.3736
     26 O3         -3.1623   -4.7529   -9.2671 O.2       1 <0>        -0.4321
     27 C20        -4.0968   -5.7026   -6.2583 C.3       1 <0>        -0.1428
     28 C21        -1.8935   -1.3992   -3.1283 C.3       1 <0>         0.0971
     29 O4         -1.5871   -0.4754   -4.1746 O.3       1 <0>        -0.7739
     30 S1         -2.1079    0.9335   -3.9286 S.o2      1 <0>         2.7712
     31 O5         -1.9930    1.6522   -5.1880 O.2       1 <0>        -1.0718
     32 O6         -3.4924    0.8034   -3.5015 O.2       1 <0>        -1.0996
     33 O7         -1.2719    1.5177   -2.8913 O.3       1 <0>        -1.0906
     34 H5          1.1472    1.0507    0.9098 H         1 <0>         0.1016
     35 H6         -0.2990    1.1403   -0.1240 H         1 <0>         0.1134
     36 H7         -0.4723    0.8786    1.6280 H         1 <0>         0.0991
     37 H8          1.9576   -2.8910   -2.0531 H         1 <0>         0.0678
     38 H9          0.8369   -4.2516   -2.2321 H         1 <0>         0.0821
     39 H10         0.4954   -1.4315   -3.3329 H         1 <0>         0.0860
     40 H11         0.7555   -2.9272   -4.2592 H         1 <0>         0.0691
     41 H12        -3.7431   -3.5049   -4.5358 H         1 <0>         0.0640
     42 H13        -3.2773   -1.8976   -5.1183 H         1 <0>         0.0768
     43 H14        -4.3385   -3.1821   -6.9104 H         1 <0>         0.0676
     44 H15        -2.6535   -2.7696   -7.2978 H         1 <0>         0.0671
     45 H16        -3.3081   -5.2805   -4.0439 H         1 <0>         0.0851
     46 H17        -2.0565   -6.5349   -3.8338 H         1 <0>         0.0696
     47 H18        -2.1859   -5.5165   -1.6227 H         1 <0>         0.1062
     48 H19        -1.4061   -4.0370   -0.1811 H         1 <0>         0.0806
     49 H20        -1.9382   -2.3964   -0.6174 H         1 <0>         0.0853
     50 H21        -0.4009   -6.9419   -6.7252 H         1 <0>         0.0715
     51 H22        -2.0068   -7.3032   -6.0278 H         1 <0>         0.0807
     52 H23        -1.2527   -6.6925   -8.8594 H         1 <0>         0.0888
     53 H24        -2.7420   -7.4669   -8.2486 H         1 <0>         0.0980
     54 H25        -4.9865   -5.6107   -6.8813 H         1 <0>         0.0565
     55 H26        -3.7747   -6.7437   -6.2363 H         1 <0>         0.0650
     56 H27        -4.3267   -5.3719   -5.2455 H         1 <0>         0.0765
     57 H28        -2.9726   -1.5440   -3.0759 H         1 <0>         0.0757
     58 H29        -1.5333   -1.0048   -2.1782 H         1 <0>         0.0780
@<TRIPOS>BOND
     1    1    2 1
     2    1   34 1
     3    1   35 1
     4    1   36 1
     5    2    3 2
     6    2    4 1
     7    4    5 1
     8    5    6 1
     9    5   22 1
    10    5    7 1
    11    7    8 1
    12    7   37 1
    13    7   38 1
    14    8    9 1
    15    8   39 1
    16    8   40 1
    17    9   21 1
    18    9   10 1
    19    9   28 1
    20   10   11 1
    21   10   17 1
    22   10   12 1
    23   12   13 1
    24   12   41 1
    25   12   42 1
    26   13   14 1
    27   13   43 1
    28   13   44 1
    29   14   25 1
    30   14   15 1
    31   14   27 1
    32   15   16 1
    33   15   17 1
    34   15   23 1
    35   17   18 1
    36   17   19 1
    37   19   20 1
    38   19   45 1
    39   19   46 1
    40   20   21 2
    41   20   47 1
    42   21   22 1
    43   22   48 1
    44   22   49 1
    45   23   24 1
    46   23   50 1
    47   23   51 1
    48   24   25 1
    49   24   52 1
    50   24   53 1
    51   25   26 2
    52   27   54 1
    53   27   55 1
    54   27   56 1
    55   28   29 1
    56   28   57 1
    57   28   58 1
    58   29   30 1
    59   30   31 2
    60   30   32 2
    61   30   33 1
@<TRIPOS>MOLECULE
ZINC50351418
   36    37     0     0     0
SMALL
USER_CHARGES

@<TRIPOS>ATOM
      1 C1         -0.0173    1.4248    0.0099 C.3       1 <0>         0.0270
      2 O1          0.0021   -0.0041    0.0020 O.3       1 <0>        -0.2910
      3 C2         -1.2014   -0.6380    0.0101 C.ar      1 <0>         0.0789
      4 C3         -2.3740    0.0990    0.0195 C.ar      1 <0>        -0.1694
      5 C4         -3.5969   -0.5464    0.0283 C.ar      1 <0>        -0.1592
      6 C5         -3.6536   -1.9286    0.0276 C.ar      1 <0>        -0.0550
      7 C6         -2.4871   -2.6715    0.0177 C.ar      1 <0>        -0.2124
      8 C7         -1.2571   -2.0300    0.0032 C.ar      1 <0>         0.2709
      9 N1         -0.0752   -2.7795   -0.0127 N.2       1 <0>        -1.0753
     10 S1         -0.1438   -4.4340   -0.0209 S.o2      1 <0>         2.5304
     11 O2         -0.7489   -4.7780    1.2180 O.2       1 <0>        -1.0200
     12 O3         -0.7735   -4.7647   -1.2511 O.2       1 <0>        -1.0140
     13 C8          1.5883   -4.9724   -0.0411 C.3       1 <0>        -0.5906
     14 C9          2.3093   -4.3024   -1.2071 C.3       1 <0>        -0.0893
     15 C10         3.8188   -4.5259   -1.0861 C.3       1 <0>        -0.5869
     16 S2          4.1609   -6.3067   -1.2056 S.o2      1 <0>         2.4097
     17 O4          5.5086   -6.5351   -0.8171 O.2       1 <0>        -0.9512
     18 O5          3.7180   -6.7678   -2.4746 O.2       1 <0>        -0.9375
     19 C11         3.0667   -6.9892    0.0749 C.3       1 <0>        -0.5924
     20 C12         1.6409   -6.4914   -0.1754 C.3       1 <0>        -0.0991
     21 Br1        -5.3296   -2.8042    0.0408 Br        1 <0>        -0.0899
     22 H1          1.0053    1.8021    0.0021 H         1 <0>         0.0870
     23 H2         -0.5445    1.7859   -0.8732 H         1 <0>         0.0439
     24 H3         -0.5275    1.7763    0.9067 H         1 <0>         0.0437
     25 H4         -2.3332    1.1782    0.0204 H         1 <0>         0.1208
     26 H5         -4.5101    0.0301    0.0360 H         1 <0>         0.1155
     27 H6         -2.5337   -3.7505    0.0173 H         1 <0>         0.1177
     28 H7          2.0667   -4.6778    0.8930 H         1 <0>         0.1376
     29 H8          1.9543   -4.7290   -2.1452 H         1 <0>         0.0926
     30 H9          2.0998   -3.2328   -1.1955 H         1 <0>         0.1223
     31 H10         4.3315   -4.0008   -1.8920 H         1 <0>         0.1378
     32 H11         4.1675   -4.1510   -0.1238 H         1 <0>         0.1348
     33 H12         3.0865   -8.0780    0.0297 H         1 <0>         0.1364
     34 H13         3.4024   -6.6566    1.0571 H         1 <0>         0.1351
     35 H14         0.9670   -6.9426    0.5529 H         1 <0>         0.0933
     36 H15         1.3291   -6.7769   -1.1801 H         1 <0>         0.0982
@<TRIPOS>BOND
     1    1    2 1
     2    1   22 1
     3    1   23 1
     4    1   24 1
     5    2    3 1
     6    3    8 ar
     7    3    4 ar
     8    4    5 ar
     9    4   25 1
    10    5    6 ar
    11    5   26 1
    12    6    7 ar
    13    6   21 1
    14    7    8 ar
    15    7   27 1
    16    8    9 1
    17    9   10 1
    18   10   11 2
    19   10   12 2
    20   10   13 1
    21   13   20 1
    22   13   14 1
    23   13   28 1
    24   14   15 1
    25   14   29 1
    26   14   30 1
    27   15   16 1
    28   15   31 1
    29   15   32 1
    30   16   17 2
    31   16   18 2
    32   16   19 1
    33   19   20 1
    34   19   33 1
    35   19   34 1
    36   20   35 1
    37   20   36 1
@<TRIPOS>MOLECULE
ZINC65193790
   42    45     0     0     0
SMALL
USER_CHARGES

@<TRIPOS>ATOM
      1 C1         -0.0184    1.5028    0.0103 C.3       1 <0>        -0.0933
      2 C2          0.0021   -0.0041    0.0020 C.2       1 <0>         0.2320
      3 N1          0.0083   -0.7709   -1.0379 N.2       1 <0>        -0.4923
      4 C3          0.0278   -2.0839   -0.7421 C.2       1 <0>         0.1366
      5 C4          0.0365   -2.3019    0.5908 C.2       1 <0>        -0.1503
      6 C5          0.0260   -0.9171    1.2123 C.3       1 <0>        -0.5576
      7 H1         -0.8677   -0.7756    1.8201 H         1 <0>         0.1856
      8 S1          1.5245   -0.6400    2.1962 S.o2      1 <0>         2.5490
      9 O1          1.4665   -1.3941    3.3992 O.2       1 <0>        -0.9786
     10 O2          2.6741   -0.6933    1.3627 O.2       1 <0>        -1.0087
     11 N2          1.4282    0.9399    2.6827 N.2       1 <0>        -1.0884
     12 C6          2.4402    1.4905    3.4723 C.ar      1 <0>         0.2934
     13 C7          3.5313    0.7155    3.8456 C.ar      1 <0>        -0.2539
     14 C8          4.5308    1.2624    4.6259 C.ar      1 <0>        -0.0577
     15 C9          4.4469    2.5802    5.0366 C.ar      1 <0>        -0.2165
     16 C10         3.3618    3.3554    4.6669 C.ar      1 <0>         0.0132
     17 C11         2.3609    2.8153    3.8811 C.ar      1 <0>        -0.1738
     18 Cl1         3.2605    5.0091    5.1853 Cl        1 <0>        -0.1059
     19 C12         0.0573   -3.5917    1.2845 C.2       1 <0>         0.2260
     20 N3          0.0592   -3.7785    2.5881 N.2       1 <0>        -0.2410
     21 N4          0.0796   -5.0411    2.8344 N.2       1 <0>        -0.2745
     22 C13         0.0914   -5.7055    1.7119 C.2       1 <0>         0.1773
     23 O3          0.0723   -4.8118    0.7074 O.3       1 <0>        -0.2150
     24 C14         0.1160   -7.2053    1.5669 C.3       1 <0>        -0.0806
     25 C15        -0.0756   -8.0408    2.8343 C.3       1 <0>        -0.1447
     26 C16         1.3029   -7.9546    2.1759 C.3       1 <0>        -0.1540
     27 C17         0.0382   -3.1806   -1.7756 C.3       1 <0>        -0.0976
     28 H2          1.0042    1.8801    0.0026 H         1 <0>         0.1068
     29 H3         -0.5455    1.8639   -0.8728 H         1 <0>         0.0853
     30 H4         -0.5286    1.8543    0.9071 H         1 <0>         0.1041
     31 H5          3.5975   -0.3140    3.5260 H         1 <0>         0.1027
     32 H6          5.3789    0.6600    4.9161 H         1 <0>         0.1113
     33 H7          5.2297    3.0051    5.6474 H         1 <0>         0.1126
     34 H8          1.5163    3.4216    3.5889 H         1 <0>         0.1244
     35 H9         -0.3025   -7.5949    0.6389 H         1 <0>         0.1370
     36 H10        -0.2194   -7.5057    3.7729 H         1 <0>         0.1136
     37 H11        -0.6203   -8.9802    2.7402 H         1 <0>         0.1108
     38 H12         1.6650   -8.8372    1.6488 H         1 <0>         0.1113
     39 H13         2.0659   -7.3627    2.6815 H         1 <0>         0.1047
     40 H14         0.0280   -2.7404   -2.7727 H         1 <0>         0.0848
     41 H15         0.9370   -3.7854   -1.6546 H         1 <0>         0.0816
     42 H16        -0.8428   -3.8094   -1.6470 H         1 <0>         0.0803
@<TRIPOS>BOND
     1    1    2 1
     2    1   28 1
     3    1   29 1
     4    1   30 1
     5    2    6 1
     6    2    3 2
     7    3    4 1
     8    4    5 2
     9    4   27 1
    10    5    6 1
    11    5   19 1
    12    6    7 1
    13    6    8 1
    14    8    9 2
    15    8   10 2
    16    8   11 1
    17   11   12 1
    18   12   17 ar
    19   12   13 ar
    20   13   14 ar
    21   13   31 1
    22   14   15 ar
    23   14   32 1
    24   15   16 ar
    25   15   33 1
    26   16   17 ar
    27   16   18 1
    28   17   34 1
    29   19   23 1
    30   19   20 2
    31   20   21 1
    32   21   22 2
    33   22   23 1
    34   22   24 1
    35   24   26 1
    36   24   25 1
    37   24   35 1
    38   25   26 1
    39   25   36 1
    40   25   37 1
    41   26   38 1
    42   26   39 1
    43   27   40 1
    44   27   41 1
    45   27   42 1
@<TRIPOS>MOLECULE
ZINC66735137
   40    41     0     0     0
SMALL
USER_CHARGES

@<TRIPOS>ATOM
      1 C1         -0.0225    1.8097    0.0120 C.3       1 <0>        -0.6767
      2 S1          0.0021   -0.0041    0.0020 S.o2      1 <0>         2.6078
      3 O1          0.8352   -0.4880    1.0465 O.2       1 <0>        -0.9491
      4 O2         -1.3147   -0.5105   -0.1678 O.2       1 <0>        -0.9613
      5 N1          0.7947   -0.4113   -1.3938 N.pl3     1 <0>        -0.9967
      6 C2          0.0529   -0.6008   -2.6478 C.3       1 <0>         0.1182
      7 C3          0.4032   -1.9761   -3.2248 C.3       1 <0>        -0.1337
      8 C4          1.9223   -2.0924   -3.3693 C.3       1 <0>        -0.0964
      9 C5          2.5787   -1.9647   -1.9927 C.3       1 <0>        -0.0608
     10 H1          2.1959   -2.7437   -1.3335 H         1 <0>         0.0869
     11 C6          2.2538   -0.5838   -1.4030 C.3       1 <0>         0.1319
     12 C7          4.0719   -2.1124   -2.1319 C.2       1 <0>         0.4936
     13 O3          4.8085   -2.5357   -1.0837 O.3       1 <0>        -0.7154
     14 N2          4.6461   -1.8340   -3.2535 N.2       1 <0>        -1.0522
     15 S2          6.2870   -1.9964   -3.4063 S.o2      1 <0>         2.6419
     16 O4          6.8727   -1.0251   -2.5503 O.2       1 <0>        -0.9982
     17 O5          6.5704   -3.3840   -3.2904 O.2       1 <0>        -0.9971
     18 C8          6.7051   -1.5329   -5.0541 C.ar      1 <0>        -0.6426
     19 C9          6.7176   -2.4872   -6.0571 C.ar      1 <0>         0.0366
     20 C10         7.0446   -2.1341   -7.3529 C.ar      1 <0>        -0.1748
     21 C11         7.3620   -0.8227   -7.6558 C.ar      1 <0>         0.1823
     22 C12         7.3505    0.1456   -6.6467 C.ar      1 <0>        -0.0881
     23 C13         7.0132   -0.2202   -5.3414 C.ar      1 <0>         0.0556
     24 C14         7.6782    1.5060   -6.9510 C.1       1 <0>         0.2593
     25 N3          7.9381    2.5852   -7.1923 N.1       1 <0>        -0.4069
     26 F1          7.6824   -0.4781   -8.9222 F         1 <0>        -0.1251
     27 H2          1.0001    2.1870    0.0043 H         1 <0>         0.1281
     28 H3         -0.5497    2.1708   -0.8711 H         1 <0>         0.1247
     29 H4         -0.5327    2.1613    0.9088 H         1 <0>         0.1235
     30 H5         -1.0178   -0.5493   -2.4504 H         1 <0>         0.0879
     31 H6          0.3332    0.1760   -3.3592 H         1 <0>         0.0684
     32 H7          0.0409   -2.7550   -2.5539 H         1 <0>         0.0647
     33 H8         -0.0651   -2.0905   -4.2024 H         1 <0>         0.0718
     34 H9          2.1728   -3.0607   -3.8026 H         1 <0>         0.0661
     35 H10         2.2870   -1.2980   -4.0206 H         1 <0>         0.0812
     36 H11         2.7099    0.1944   -2.0150 H         1 <0>         0.0769
     37 H12         2.6356   -0.5210   -0.3841 H         1 <0>         0.0981
     38 H13         6.4709   -3.5129   -5.8258 H         1 <0>         0.1580
     39 H14         7.0527   -2.8839   -8.1301 H         1 <0>         0.1535
     40 H15         6.9980    0.5231   -4.5580 H         1 <0>         0.1583
@<TRIPOS>BOND
     1    1    2 1
     2    1   27 1
     3    1   28 1
     4    1   29 1
     5    2    3 2
     6    2    4 2
     7    2    5 1
     8    5   11 1
     9    5    6 1
    10    6    7 1
    11    6   30 1
    12    6   31 1
    13    7    8 1
    14    7   32 1
    15    7   33 1
    16    8    9 1
    17    8   34 1
    18    8   35 1
    19    9   10 1
    20    9   11 1
    21    9   12 1
    22   11   36 1
    23   11   37 1
    24   12   13 1
    25   12   14 2
    26   14   15 1
    27   15   16 2
    28   15   17 2
    29   15   18 1
    30   18   23 ar
    31   18   19 ar
    32   19   20 ar
    33   19   38 1
    34   20   21 ar
    35   20   39 1
    36   21   22 ar
    37   21   26 1
    38   22   23 ar
    39   22   24 1
    40   23   40 1
    41   24   25 3
@<TRIPOS>MOLECULE
ZINC02781291
   49    50     0     0     0
SMALL
USER_CHARGES
2-ethyl-4-nitro-N-(2,2,6,6-tetramethyl-4-piperidyl)-pyrazole-3-carboxamide
@<TRIPOS>ATOM
      1 C1         -1.5415    4.0314   -7.1576 C.3       1 <0>        -0.1776
      2 C2         -0.2618    3.2351   -6.8947 C.3       1 <0>         0.1088
      3 N1          0.8482    4.1604   -6.6536 N.pl3     1 <0>        -0.2412
      4 C3          1.2773    4.5715   -5.4236 C.2       1 <0>         0.0482
      5 C4          2.3406    5.4278   -5.6512 C.2       1 <0>        -0.1211
      6 C5          2.4815    5.4818   -7.0397 C.2       1 <0>         0.0886
      7 N2          1.5642    4.7115   -7.5665 N.2       1 <0>        -0.2501
      8 N3          3.1548    6.1364   -4.6383 N.pl3     1 <0>         0.0624
      9 O1          4.0664    6.8636   -4.9899 O.2       1 <0>        -0.1298
     10 O2          2.9132    5.9922   -3.4533 O.3       1 <0>        -0.1648
     11 C6          0.7240    4.1779   -4.1180 C.2       1 <0>         0.6011
     12 O3         -0.1296    4.8631   -3.5877 O.2       1 <0>        -0.4823
     13 N4          1.1631    3.0581   -3.5100 N.am      1 <0>        -0.7123
     14 C7          0.6972    2.7261   -2.1577 C.3       1 <0>         0.1410
     15 C8          1.7362    1.8403   -1.4706 C.3       1 <0>        -0.1377
     16 C9          1.2673    1.4618   -0.0679 C.3       1 <0>         0.0681
     17 C10        -1.1129    1.5703   -0.8613 C.3       1 <0>         0.0664
     18 C11        -0.6157    1.9496   -2.2540 C.3       1 <0>        -0.1417
     19 C12        -2.2634    0.5545   -1.0389 C.3       1 <0>        -0.1833
     20 C13        -1.7025    2.8074   -0.1733 C.3       1 <0>        -0.1752
     21 C14         1.4259    2.6660    0.8679 C.3       1 <0>        -0.1775
     22 C15         2.2069    0.3514    0.4529 C.3       1 <0>        -0.1838
     23 H1         -1.7677    4.6522   -6.2907 H         1 <0>         0.0694
     24 H2         -1.4011    4.6663   -8.0324 H         1 <0>         0.0793
     25 H3         -2.3673    3.3430   -7.3370 H         1 <0>         0.0952
     26 H4         -0.0355    2.6144   -7.7616 H         1 <0>         0.1236
     27 H5         -0.4021    2.6003   -6.0199 H         1 <0>         0.1023
     28 H6          3.2168    6.0575   -7.5823 H         1 <0>         0.2191
     29 H7          1.7869    2.4715   -3.9657 H         1 <0>         0.4099
     30 H8          0.5536    3.6468   -1.5981 H         1 <0>         0.1149
     31 H9          2.6844    2.3786   -1.4041 H         1 <0>         0.1228
     32 H10         1.8866    0.9334   -2.0608 H         1 <0>         0.0964
     33 H11        -1.3664    2.5676   -2.7521 H         1 <0>         0.1164
     34 H12        -0.4585    1.0433   -2.8433 H         1 <0>         0.0929
     35 H13        -2.6709    0.2927   -0.0624 H         1 <0>         0.0847
     36 H14        -3.0475    0.9973   -1.6530 H         1 <0>         0.1057
     37 H15        -1.8834   -0.3432   -1.5265 H         1 <0>         0.0808
     38 H16        -0.9120    3.5371    0.0018 H         1 <0>         0.0837
     39 H17        -2.4685    3.2477   -0.8116 H         1 <0>         0.1068
     40 H18        -2.1461    2.5167    0.7790 H         1 <0>         0.0839
     41 H19         1.1846    2.3677    1.8881 H         1 <0>         0.0851
     42 H20         2.4546    3.0243    0.8278 H         1 <0>         0.1090
     43 H21         0.7513    3.4622    0.5530 H         1 <0>         0.0837
     44 H22         2.1230   -0.5259   -0.1886 H         1 <0>         0.0813
     45 H23         3.2355    0.7117    0.4430 H         1 <0>         0.1077
     46 H24         1.9249    0.0850    1.4715 H         1 <0>         0.0853
     47 N5         -0.1065    0.8954    0.0016 N.4       1 <0>        -0.5093
     48 H25        -0.4280    0.9595    0.9746 H         1 <0>         0.4338
     49 H26        -0.0582   -0.0912   -0.2786 H         1 <0>         0.4291
@<TRIPOS>BOND
     1    1    2 1
     2    1   23 1
     3    1   24 1
     4    1   25 1
     5    2    3 1
     6    2   26 1
     7    2   27 1
     8    3    7 1
     9    3    4 1
    10    4    5 2
    11    4   11 1
    12    5    6 1
    13    5    8 1
    14    6    7 2
    15    6   28 1
    16    8    9 2
    17    8   10 1
    18   11   12 2
    19   11   13 am
    20   13   14 1
    21   13   29 1
    22   14   18 1
    23   14   15 1
    24   14   30 1
    25   15   16 1
    26   15   31 1
    27   15   32 1
    28   16   21 1
    29   16   22 1
    30   16   47 1
    31   17   18 1
    32   17   19 1
    33   17   20 1
    34   17   47 1
    35   18   33 1
    36   18   34 1
    37   19   35 1
    38   19   36 1
    39   19   37 1
    40   20   38 1
    41   20   39 1
    42   20   40 1
    43   21   41 1
    44   21   42 1
    45   21   43 1
    46   22   44 1
    47   22   45 1
    48   22   46 1
    49   47   48 1
    50   47   49 1
@<TRIPOS>MOLECULE
ZINC23989800
   52    54     0     0     0
SMALL
USER_CHARGES
2,4,7,8-tetramethyl-6-[2-(sec-butylamino)ethyl]purino[8,7-b]imidazole-1,3-dione
@<TRIPOS>ATOM
      1 C1         -2.1325    7.3601   11.2072 C.3       1 <0>        -0.1736
      2 C2         -3.2795    7.6779   10.2458 C.3       1 <0>        -0.1499
      3 C3         -2.9187    7.1883    8.8419 C.3       1 <0>         0.0376
      4 H1         -1.9412    7.5872    8.5331 H         1 <0>         0.1334
      5 C4         -4.0087    7.6158    7.8570 C.3       1 <0>        -0.1861
      6 N1         -2.8105    5.7233    8.8470 N.4       1 <0>        -0.5381
      7 C5         -1.9300    5.2568    7.7676 C.3       1 <0>        -0.0304
      8 C6         -1.8423    3.7297    7.8051 C.3       1 <0>         0.1062
      9 N2         -0.9642    3.2645    6.7287 N.pl3     1 <0>        -0.4630
     10 C7          0.4015    3.0732    6.8178 C.2       1 <0>         0.0496
     11 C8          0.8385    2.6467    5.6366 C.2       1 <0>         0.0468
     12 N3         -0.2429    2.5601    4.7775 N.pl3     1 <0>        -0.3492
     13 C9         -1.3509    2.9416    5.4548 C.2       1 <0>         0.4366
     14 N4         -2.4021    2.8673    4.6513 N.2       1 <0>        -0.5066
     15 C10        -2.0242    2.4439    3.4482 C.2       1 <0>         0.3810
     16 C11        -0.6461    2.2363    3.4908 C.2       1 <0>        -0.1739
     17 C12         0.0137    1.7829    2.3367 C.2       1 <0>         0.5953
     18 O1          1.2177    1.5939    2.3503 O.2       1 <0>        -0.5095
     19 N5         -0.6984    1.5583    1.2133 N.am      1 <0>        -0.5505
     20 C13        -2.0259    1.7661    1.1801 C.2       1 <0>         0.7096
     21 O2         -2.6331    1.5573    0.1475 O.2       1 <0>        -0.5224
     22 N6         -2.7007    2.1947    2.2635 N.am      1 <0>        -0.5102
     23 C14        -4.1488    2.4040    2.1891 C.3       1 <0>         0.0810
     24 C15        -0.0127    1.0858    0.0080 C.3       1 <0>         0.0770
     25 C16         2.2674    2.3137    5.2924 C.3       1 <0>        -0.1063
     26 C17         1.2488    3.3070    8.0420 C.3       1 <0>        -0.0869
     27 H2         -2.3919    7.7121   12.2166 H         1 <0>         0.0867
     28 H3         -1.2174    7.8663   10.8662 H         1 <0>         0.0729
     29 H4         -1.9636    6.2734   11.2300 H         1 <0>         0.0498
     30 H5         -4.1946    7.1717   10.5868 H         1 <0>         0.0913
     31 H6         -3.4484    8.7646   10.2230 H         1 <0>         0.1138
     32 H7         -3.7493    7.2638    6.8476 H         1 <0>         0.0801
     33 H8         -4.0897    8.7128    7.8533 H         1 <0>         0.1076
     34 H9         -4.9707    7.1781    8.1621 H         1 <0>         0.0855
     35 H10        -2.3957    5.3896    9.8096 H         1 <0>         0.4452
     36 H11        -2.3379    5.5770    6.7975 H         1 <0>         0.1379
     37 H12        -0.9259    5.6852    7.9025 H         1 <0>         0.1360
     38 H13        -1.4344    3.4096    8.7752 H         1 <0>         0.1218
     39 H14        -2.8464    3.3013    7.6702 H         1 <0>         0.1219
     40 H15        -4.5037    2.1557    1.1780 H         1 <0>         0.1096
     41 H16        -4.3790    3.4567    2.4103 H         1 <0>         0.0797
     42 H17        -4.6510    1.7568    2.9232 H         1 <0>         0.0816
     43 H18        -0.7441    0.9582   -0.8037 H         1 <0>         0.1094
     44 H19         0.4746    0.1221    0.2174 H         1 <0>         0.0853
     45 H20         0.7462    1.8224   -0.2947 H         1 <0>         0.0848
     46 H21         2.3255    1.9879    4.2434 H         1 <0>         0.1005
     47 H22         2.6235    1.5052    5.9478 H         1 <0>         0.0903
     48 H23         2.8961    3.2050    5.4348 H         1 <0>         0.0893
     49 H24         2.2981    3.0701    7.8123 H         1 <0>         0.1050
     50 H25         0.8975    2.6607    8.8599 H         1 <0>         0.0868
     51 H26         1.1691    4.3608    8.3473 H         1 <0>         0.0794
     52 H27        -3.8077    5.2815    8.7046 H         1 <0>         0.4505
@<TRIPOS>BOND
     1    1    2 1
     2    1   27 1
     3    1   28 1
     4    1   29 1
     5    2    3 1
     6    2   30 1
     7    2   31 1
     8    3    4 1
     9    3    5 1
    10    3    6 1
    11    5   32 1
    12    5   33 1
    13    5   34 1
    14    6    7 1
    15    6   35 1
    16    6   52 1
    17    7    8 1
    18    7   36 1
    19    7   37 1
    20    8    9 1
    21    8   38 1
    22    8   39 1
    23    9   13 1
    24    9   10 1
    25   10   11 2
    26   10   26 1
    27   11   12 1
    28   11   25 1
    29   12   16 1
    30   12   13 1
    31   13   14 2
    32   14   15 1
    33   15   22 1
    34   15   16 2
    35   16   17 1
    36   17   18 2
    37   17   19 am
    38   19   20 am
    39   19   24 1
    40   20   21 2
    41   20   22 am
    42   22   23 1
    43   23   40 1
    44   23   41 1
    45   23   42 1
    46   24   43 1
    47   24   44 1
    48   24   45 1
    49   25   46 1
    50   25   47 1
    51   25   48 1
    52   26   49 1
    53   26   50 1
    54   26   51 1
@<TRIPOS>MOLECULE
ZINC39706847
   36    39     0     0     0
SMALL
USER_CHARGES

@<TRIPOS>ATOM
      1 C1         -0.0184    1.5028    0.0103 C.3       1 <0>        -0.0650
      2 C2          0.0021   -0.0041    0.0020 C.2       1 <0>         0.0505
      3 N1          0.0098   -0.8438   -1.0138 N.2       1 <0>        -0.2371
      4 N2          0.0282   -2.0862   -0.7843 N.2       1 <0>        -0.2915
      5 C3          0.0399   -2.5678    0.4430 C.2       1 <0>         0.2133
      6 S1          0.0307   -1.1577    1.3670 S.3       1 <0>         0.0891
      7 N3          0.0603   -3.8928    0.8650 N.am      1 <0>        -0.6051
      8 C4          0.0711   -4.8891   -0.0426 C.2       1 <0>         0.5282
      9 O1          0.0631   -4.6301   -1.2274 O.2       1 <0>        -0.4439
     10 C5          0.0931   -6.3249    0.4147 C.3       1 <0>        -0.1761
     11 S2          0.1034   -7.4200   -1.0314 S.3       1 <0>         0.2438
     12 C6          0.1289   -9.0401   -0.3390 C.2       1 <0>         0.2209
     13 N4          0.1299   -9.1538    0.9674 N.2       1 <0>        -0.5114
     14 C7          0.2305  -10.4972    1.5329 C.3       1 <0>         0.2294
     15 H1          1.2784  -10.7550    1.6861 H         1 <0>         0.1997
     16 C8         -0.3871  -11.4397    0.5099 C.2       1 <0>         0.0218
     17 C9         -1.2555  -12.2209    1.2098 C.ar      1 <0>        -0.0260
     18 C10        -2.0388  -13.3417    0.8386 C.ar      1 <0>        -0.0450
     19 C11        -2.8307  -13.8959    1.7952 C.ar      1 <0>        -0.1043
     20 C12        -2.9176  -13.4303    3.1108 C.ar      1 <0>         0.0336
     21 C13        -2.2079  -12.3691    3.5789 C.ar      1 <0>        -0.1736
     22 C14        -1.3150  -11.7075    2.6131 C.ar      1 <0>         0.3299
     23 N5         -0.5121  -10.6997    2.7688 N.pl3     1 <0>        -0.5191
     24 N6         -0.1407  -11.3018   -0.7968 N.2       1 <0>        -0.0388
     25 N7          0.1408  -10.0972   -1.1875 N.2       1 <0>        -0.1037
     26 H2          1.0042    1.8801    0.0026 H         1 <0>         0.1005
     27 H3         -0.5455    1.8639   -0.8728 H         1 <0>         0.1062
     28 H4         -0.5286    1.8543    0.9071 H         1 <0>         0.0944
     29 H5          0.0667   -4.1000    1.8126 H         1 <0>         0.4315
     30 H6          0.9879   -6.5025    1.0113 H         1 <0>         0.1447
     31 H7         -0.7919   -6.5277    1.0178 H         1 <0>         0.1405
     32 H8         -2.0080  -13.7405   -0.1646 H         1 <0>         0.1792
     33 H9         -3.4314  -14.7505    1.5210 H         1 <0>         0.1643
     34 H10        -3.5839  -13.9401    3.7909 H         1 <0>         0.1713
     35 H11        -2.2945  -12.0306    4.6008 H         1 <0>         0.1833
     36 H12        -0.4212  -10.1692    3.5758 H         1 <0>         0.4646
@<TRIPOS>BOND
     1    1    2 1
     2    1   26 1
     3    1   27 1
     4    1   28 1
     5    2    6 1
     6    2    3 2
     7    3    4 1
     8    4    5 2
     9    5    6 1
    10    5    7 1
    11    7    8 am
    12    7   29 1
    13    8    9 2
    14    8   10 1
    15   10   11 1
    16   10   30 1
    17   10   31 1
    18   11   12 1
    19   12   25 1
    20   12   13 2
    21   13   14 1
    22   14   15 1
    23   14   23 1
    24   14   16 1
    25   16   17 2
    26   16   24 1
    27   17   22 ar
    28   17   18 ar
    29   18   19 ar
    30   18   32 1
    31   19   20 ar
    32   19   33 1
    33   20   21 ar
    34   20   34 1
    35   21   22 ar
    36   21   35 1
    37   22   23 2
    38   23   36 1
    39   24   25 2
@<TRIPOS>MOLECULE
ZINC56878966
   52    54     0     0     0
SMALL
USER_CHARGES

@<TRIPOS>ATOM
      1 C1          0.3167    1.2713    1.0721 C.3       1 <0>        -0.0796
      2 C2          0.1544   -0.1121    0.4968 C.2       1 <0>         0.0011
      3 C3         -0.8217   -0.9766    0.8132 C.2       1 <0>        -0.1965
      4 C4         -0.5713   -2.1812    0.0083 C.2       1 <0>        -0.2479
      5 C5          0.5493   -1.9093   -0.7205 C.2       1 <0>         0.0796
      6 O1          0.9598   -0.6739   -0.4181 O.3       1 <0>        -0.1704
      7 C6          1.2091   -2.8415   -1.7038 C.3       1 <0>        -0.0907
      8 C7         -1.3650   -3.4229   -0.0077 C.2       1 <0>         0.5982
      9 O2         -0.8087   -4.4987   -0.1178 O.2       1 <0>        -0.5264
     10 N1         -2.7073   -3.3661    0.0997 N.am      1 <0>        -0.6090
     11 C8         -3.4026   -2.0714    0.1105 C.3       1 <0>         0.0855
     12 C9         -4.4581   -2.0727   -1.0023 C.3       1 <0>         0.0988
     13 N2         -5.2527   -3.3044   -0.8944 N.am      1 <0>        -0.6250
     14 C10        -4.5573   -4.5991   -0.9052 C.3       1 <0>         0.1158
     15 C11        -3.5022   -4.5979    0.2019 C.3       1 <0>         0.0969
     16 C12        -6.5949   -3.2476   -0.7871 C.2       1 <0>         0.7106
     17 O3         -7.2337   -4.2657   -0.6033 O.2       1 <0>        -0.5729
     18 N3         -7.2291   -2.0623   -0.8835 N.am      1 <0>        -0.7536
     19 C13        -8.6933   -2.0122   -0.8758 C.3       1 <0>         0.1454
     20 H1         -9.0895   -2.8883   -1.3890 H         1 <0>         0.1038
     21 C14        -9.1954   -1.9971    0.5694 C.3       1 <0>        -0.1683
     22 C15        -9.1639   -0.7450   -1.5924 C.3       1 <0>         0.0822
     23 N4         -8.7860   -0.8145   -3.0061 N.pl3     1 <0>        -0.4069
     24 C16        -7.6140   -0.3703   -3.5563 C.2       1 <0>         0.0225
     25 C17        -7.6805   -0.6290   -4.8763 C.2       1 <0>         0.0074
     26 N5         -8.8610   -1.2152   -5.1252 N.pl3     1 <0>        -0.4752
     27 C18        -9.5263   -1.3341   -4.0089 C.cat     1 <0>         0.2930
     28 H2          1.1918    1.7481    0.6305 H         1 <0>         0.0808
     29 H3         -0.5708    1.8637    0.8498 H         1 <0>         0.0882
     30 H4          0.4466    1.2027    2.1522 H         1 <0>         0.0904
     31 H5         -1.6267   -0.8199    1.5159 H         1 <0>         0.1572
     32 H6          0.7846   -2.6835   -2.6953 H         1 <0>         0.0871
     33 H7          2.2803   -2.6419   -1.7312 H         1 <0>         0.0864
     34 H8          1.0395   -3.8733   -1.3962 H         1 <0>         0.1080
     35 H9         -3.8884   -1.9251    1.0753 H         1 <0>         0.0752
     36 H10        -2.6857   -1.2696   -0.0663 H         1 <0>         0.1131
     37 H11        -5.1096   -1.2061   -0.8896 H         1 <0>         0.0821
     38 H12        -3.9654   -2.0392   -1.9739 H         1 <0>         0.0790
     39 H13        -5.2742   -5.4009   -0.7285 H         1 <0>         0.1103
     40 H14        -4.0715   -4.7454   -1.8700 H         1 <0>         0.0754
     41 H15        -2.8511   -5.4643    0.0854 H         1 <0>         0.1115
     42 H16        -3.9952   -4.6357    1.1733 H         1 <0>         0.0761
     43 H17        -6.7162   -1.2424   -0.9580 H         1 <0>         0.3931
     44 H18       -10.2848   -1.9598    0.5752 H         1 <0>         0.0776
     45 H19        -8.8601   -2.8999    1.0800 H         1 <0>         0.0827
     46 H20        -8.7991   -1.1210    1.0827 H         1 <0>         0.0676
     47 H21       -10.2476   -0.6620   -1.5097 H         1 <0>         0.1413
     48 H22        -8.6968    0.1266   -1.1339 H         1 <0>         0.1304
     49 H23        -6.7937    0.0980   -3.0326 H         1 <0>         0.2177
     50 H24        -6.9172   -0.4039   -5.6064 H         1 <0>         0.2233
     51 H25       -10.5076   -1.7730   -3.9047 H         1 <0>         0.2611
     52 H26        -9.1698   -1.5079   -5.9969 H         1 <0>         0.4661
@<TRIPOS>BOND
     1    1    2 1
     2    1   28 1
     3    1   29 1
     4    1   30 1
     5    2    6 1
     6    2    3 2
     7    3    4 1
     8    3   31 1
     9    4    5 2
    10    4    8 1
    11    5    6 1
    12    5    7 1
    13    7   32 1
    14    7   33 1
    15    7   34 1
    16    8    9 2
    17    8   10 am
    18   10   15 1
    19   10   11 1
    20   11   12 1
    21   11   35 1
    22   11   36 1
    23   12   13 1
    24   12   37 1
    25   12   38 1
    26   13   14 1
    27   13   16 am
    28   14   15 1
    29   14   39 1
    30   14   40 1
    31   15   41 1
    32   15   42 1
    33   16   17 2
    34   16   18 am
    35   18   19 1
    36   18   43 1
    37   19   20 1
    38   19   21 1
    39   19   22 1
    40   21   44 1
    41   21   45 1
    42   21   46 1
    43   22   23 1
    44   22   47 1
    45   22   48 1
    46   23   27 1
    47   23   24 1
    48   24   25 2
    49   24   49 1
    50   25   26 1
    51   25   50 1
    52   26   27 2
    53   26   52 1
    54   27   51 1
@<TRIPOS>MOLECULE
ZINC64414996
   41    44     0     0     0
SMALL
USER_CHARGES

@<TRIPOS>ATOM
      1 C1         -0.0171    1.3782   -0.0138 C.ar      1 <0>        -0.0781
      2 C2          1.1661    2.0892   -0.0137 C.ar      1 <0>        -0.1229
      3 C3          2.3874    1.4129   -0.0194 C.ar      1 <0>        -0.1069
      4 C4          2.4070    0.0182   -0.0252 C.ar      1 <0>        -0.0920
      5 C5          1.2128   -0.6873   -0.0252 C.ar      1 <0>         0.2291
      6 C6          0.0015   -0.0035   -0.0195 C.ar      1 <0>        -0.1388
      7 N1          1.2265   -2.0832   -0.0314 N.pl3     1 <0>        -0.5095
      8 C7          0.0582   -2.9838   -0.0324 C.3       1 <0>         0.3090
      9 N2          0.6753   -4.3236   -0.0408 N.pl3     1 <0>        -0.6639
     10 N3          2.0586   -4.1082   -0.0438 N.2       1 <0>         0.0351
     11 N4          2.3519   -2.9158   -0.0441 N.2       1 <0>        -0.0031
     12 C8          3.6556    2.1724   -0.0198 C.2       1 <0>         0.5693
     13 O1          4.7180    1.5815   -0.0247 O.2       1 <0>        -0.5051
     14 N5          3.6341    3.5200   -0.0147 N.am      1 <0>        -0.6739
     15 C9          4.8302    4.2380    0.0829 C.ar      1 <0>         0.1943
     16 C10         4.8690    5.4329    0.7899 C.ar      1 <0>        -0.1364
     17 C11         6.0519    6.1393    0.8847 C.ar      1 <0>        -0.0550
     18 C12         7.1968    5.6585    0.2763 C.ar      1 <0>        -0.1463
     19 C13         7.1616    4.4694   -0.4288 C.ar      1 <0>        -0.0837
     20 C14         5.9833    3.7549   -0.5222 C.ar      1 <0>        -0.1117
     21 C15         8.4858    6.4322    0.3814 C.3       1 <0>         0.0568
     22 H1          8.4564    7.1138    1.2315 H         1 <0>         0.2116
     23 C16         8.7638    7.1898   -0.9049 C.2       1 <0>         0.0424
     24 C17         9.9154    6.6735   -1.3394 C.2       1 <0>        -0.0679
     25 N6         10.3616    5.7172   -0.4951 N.2       1 <0>        -0.0112
     26 N7          9.6353    5.5175    0.4866 N.pl3     1 <0>        -0.2739
     27 H2         -0.9606    1.9036   -0.0050 H         1 <0>         0.1417
     28 H3          1.1470    3.1691   -0.0096 H         1 <0>         0.1279
     29 H4          3.3487   -0.5105   -0.0299 H         1 <0>         0.1486
     30 H5         -0.9275   -0.5543   -0.0196 H         1 <0>         0.1351
     31 H6         -0.5402   -2.8404    0.8672 H         1 <0>         0.0870
     32 H7         -0.5472   -2.8293   -0.9255 H         1 <0>         0.0871
     33 H8          0.2169   -5.1784   -0.0432 H         1 <0>         0.4577
     34 H9          2.7890    3.9918   -0.0786 H         1 <0>         0.4201
     35 H10         3.9750    5.8093    1.2646 H         1 <0>         0.1465
     36 H11         6.0827    7.0685    1.4343 H         1 <0>         0.1451
     37 H12         8.0574    4.0967   -0.9031 H         1 <0>         0.1225
     38 H13         5.9575    2.8241   -1.0692 H         1 <0>         0.1556
     39 H14         8.1679    7.9659   -1.3621 H         1 <0>         0.2293
     40 H15        10.4219    6.9785   -2.2431 H         1 <0>         0.2353
     41 H16         9.7925    4.8759    1.1968 H         1 <0>         0.4929
@<TRIPOS>BOND
     1    1    6 ar
     2    1    2 ar
     3    1   27 1
     4    2    3 ar
     5    2   28 1
     6    3    4 ar
     7    3   12 1
     8    4    5 ar
     9    4   29 1
    10    5    6 ar
    11    5    7 1
    12    6   30 1
    13    7    8 1
    14    7   11 1
    15    8   31 1
    16    8   32 1
    17    8    9 1
    18    9   33 1
    19    9   10 1
    20   10   11 2
    21   12   13 2
    22   12   14 am
    23   14   15 1
    24   14   34 1
    25   15   20 ar
    26   15   16 ar
    27   16   17 ar
    28   16   35 1
    29   17   18 ar
    30   17   36 1
    31   18   19 ar
    32   18   21 1
    33   19   20 ar
    34   19   37 1
    35   20   38 1
    36   21   22 1
    37   21   26 1
    38   21   23 1
    39   23   24 2
    40   23   39 1
    41   24   25 1
    42   24   40 1
    43   25   26 2
    44   26   41 1
@<TRIPOS>MOLECULE
ZINC26422991
   44    47     0     0     0
SMALL
USER_CHARGES
3-(4-ethoxyphenyl)-7-piperazin-1-yl-triazolo[5,4-d]pyrimidine
@<TRIPOS>ATOM
      1 C1          5.0584    9.5056   -0.6115 C.3       1 <0>        -0.1572
      2 C2          4.4419    8.1102   -0.7280 C.3       1 <0>         0.0487
      3 O1          5.2463    7.1726   -0.0098 O.3       1 <0>        -0.3066
      4 C3          4.8349    5.8769   -0.0126 C.ar      1 <0>         0.1566
      5 C4          5.5695    4.9146    0.6651 C.ar      1 <0>        -0.1363
      6 C5          5.1522    3.5985    0.6625 C.ar      1 <0>        -0.0538
      7 C6          3.9972    3.2381   -0.0184 C.ar      1 <0>         0.0745
      8 C7          3.2656    4.2004   -0.7012 C.ar      1 <0>        -0.0518
      9 C8          3.6809    5.5172   -0.6936 C.ar      1 <0>        -0.1923
     10 N1          3.5727    1.9012   -0.0213 N.pl3     1 <0>        -0.3066
     11 C9          2.2787    1.4532   -0.0118 C.ar      1 <0>         0.3213
     12 C10         2.3541    0.0490   -0.0201 C.ar      1 <0>        -0.1239
     13 C11         1.1463   -0.6778   -0.0125 C.ar      1 <0>         0.4539
     14 N2          0.0021   -0.0041    0.0020 N.ar      1 <0>        -0.5623
     15 C12        -0.0158    1.3168    0.0093 C.ar      1 <0>         0.3787
     16 N3          1.0845    2.0380    0.0026 N.ar      1 <0>        -0.5175
     17 N4          1.1529   -2.0595   -0.0196 N.pl3     1 <0>        -0.4679
     18 C13         1.9296   -2.5883    1.1104 C.3       1 <0>         0.0227
     19 C14         1.9789   -4.1154    1.0219 C.3       1 <0>         0.0052
     20 N5          0.6096   -4.6486    1.0325 N.4       1 <0>        -0.5404
     21 C15        -0.1672   -4.1199   -0.0974 C.3       1 <0>        -0.0022
     22 C16        -0.2165   -2.5927   -0.0089 C.3       1 <0>         0.0292
     23 N6          3.6534   -0.2938   -0.0339 N.2       1 <0>        -0.1907
     24 N7          4.3911    0.7613   -0.0350 N.2       1 <0>         0.0287
     25 H1          4.4392   10.2273   -1.1644 H         1 <0>         0.0841
     26 H2          6.0739    9.4942   -1.0342 H         1 <0>         0.0699
     27 H3          5.1053    9.7984    0.4478 H         1 <0>         0.0698
     28 H4          3.4264    8.1216   -0.3053 H         1 <0>         0.0680
     29 H5          4.3949    7.8173   -1.7873 H         1 <0>         0.0678
     30 H6          6.4678    5.1951    1.1951 H         1 <0>         0.1495
     31 H7          5.7243    2.8494    1.1898 H         1 <0>         0.1442
     32 H8          2.3697    3.9198   -1.2351 H         1 <0>         0.1387
     33 H9          3.1098    6.2665   -1.2216 H         1 <0>         0.1448
     34 H10        -0.9695    1.8236    0.0165 H         1 <0>         0.2224
     35 H11         2.9522   -2.1847    1.0732 H         1 <0>         0.1425
     36 H12         1.4518   -2.2900    2.0553 H         1 <0>         0.0777
     37 H13         2.4819   -4.4126    0.0899 H         1 <0>         0.1435
     38 H14         2.5356   -4.5148    1.8825 H         1 <0>         0.1482
     39 H15         0.6427   -5.7455    0.9567 H         1 <0>         0.4609
     40 H16         0.3105   -4.4182   -1.0423 H         1 <0>         0.1388
     41 H17        -1.1898   -4.5235   -0.0602 H         1 <0>         0.1470
     42 H18        -0.7188   -2.2945    0.9232 H         1 <0>         0.0852
     43 H19        -0.7726   -2.1923   -0.8694 H         1 <0>         0.1374
     44 H20         0.1113   -4.3608    1.9699 H         1 <0>         0.4496
@<TRIPOS>BOND
     1    1    2 1
     2    1   25 1
     3    1   26 1
     4    1   27 1
     5    2    3 1
     6    2   28 1
     7    2   29 1
     8    3    4 1
     9    4    9 ar
    10    4    5 ar
    11    5    6 ar
    12    5   30 1
    13    6    7 ar
    14    6   31 1
    15    7    8 ar
    16    7   10 1
    17    8    9 ar
    18    8   32 1
    19    9   33 1
    20   10   24 1
    21   10   11 1
    22   11   16 ar
    23   11   12 ar
    24   12   13 ar
    25   12   23 1
    26   13   14 ar
    27   13   17 1
    28   14   15 ar
    29   15   16 ar
    30   15   34 1
    31   17   22 1
    32   17   18 1
    33   18   19 1
    34   18   35 1
    35   18   36 1
    36   19   20 1
    37   19   37 1
    38   19   38 1
    39   20   21 1
    40   20   39 1
    41   20   44 1
    42   21   22 1
    43   21   40 1
    44   21   41 1
    45   22   42 1
    46   22   43 1
    47   23   24 2
@<TRIPOS>MOLECULE
ZINC39380716
   43    45     0     0     0
SMALL
USER_CHARGES

@<TRIPOS>ATOM
      1 C1         -0.2529    1.4925   -0.0986 C.3       1 <0>        -0.1844
      2 C2          0.0014   -0.0127    0.0050 C.3       1 <0>         0.0717
      3 H1         -0.9495   -0.5357    0.1060 H         1 <0>         0.1147
      4 C3          0.8606   -0.2952    1.2104 C.2       1 <0>         0.5307
      5 O1          1.9765   -0.7473    1.0670 O.2       1 <0>        -0.4303
      6 N1          0.3886   -0.0453    2.4479 N.am      1 <0>        -0.5549
      7 N2          1.1873   -0.3079    3.5685 N.2       1 <0>        -0.1241
      8 C4          0.7288   -0.0652    4.7706 C.2       1 <0>         0.0363
      9 C5          1.5282   -0.3280    5.8922 C.2       1 <0>         0.1284
     10 C6          1.1924   -0.1335    7.2298 C.ar      1 <0>        -0.1456
     11 C7          0.0266    0.3555    7.8600 C.ar      1 <0>        -0.0259
     12 C8         -0.0224    0.4382    9.2132 C.ar      1 <0>        -0.1396
     13 C9          1.0579    0.0497   10.0109 C.ar      1 <0>         0.0406
     14 C10         2.2068   -0.4283    9.4758 C.ar      1 <0>        -0.1991
     15 C11         2.3341   -0.5445    8.0658 C.ar      1 <0>         0.3141
     16 N3          3.3262   -0.9704    7.3129 N.pl3     1 <0>        -0.5872
     17 C12         2.9334   -0.8883    5.9028 C.3       1 <0>         0.0697
     18 O2          0.6709   -0.4649   -1.1737 O.3       1 <0>        -0.2539
     19 C13        -0.1065   -0.7748   -2.2444 C.ar      1 <0>         0.1885
     20 C14        -1.4734   -0.5405   -2.2017 C.ar      1 <0>        -0.2181
     21 C15        -2.2614   -0.8559   -3.2915 C.ar      1 <0>        -0.0247
     22 C16        -1.6890   -1.4046   -4.4244 C.ar      1 <0>        -0.1468
     23 C17        -0.3273   -1.6394   -4.4693 C.ar      1 <0>        -0.0165
     24 C18         0.4660   -1.3204   -3.3840 C.ar      1 <0>        -0.0775
     25 N4          1.9246   -1.5663   -3.4350 N.pl3     1 <0>         0.0346
     26 O3          2.4231   -2.0418   -4.4285 O.2       1 <0>        -0.1687
     27 O4          2.6176   -1.2916   -2.4832 O.3       1 <0>        -0.1275
     28 H2          0.6981    2.0155   -0.1996 H         1 <0>         0.0870
     29 H3         -0.8743    1.6968   -0.9705 H         1 <0>         0.0899
     30 H4         -0.7635    1.8374    0.8004 H         1 <0>         0.0844
     31 H5         -0.5041    0.3164    2.5626 H         1 <0>         0.4055
     32 H6         -0.2651    0.3375    4.8983 H         1 <0>         0.1605
     33 H7         -0.8221    0.6627    7.2669 H         1 <0>         0.1563
     34 H8         -0.9180    0.8138    9.6859 H         1 <0>         0.1563
     35 H9          0.9743    0.1333   11.0844 H         1 <0>         0.1610
     36 H10         3.0235   -0.7205   10.1193 H         1 <0>         0.1611
     37 H11         2.9457   -1.8794    5.4492 H         1 <0>         0.1792
     38 H12         3.6076   -0.2209    5.3660 H         1 <0>         0.1788
     39 H13        -1.9210   -0.1124   -1.3170 H         1 <0>         0.1516
     40 H14        -3.3255   -0.6741   -3.2586 H         1 <0>         0.1503
     41 H15        -2.3067   -1.6505   -5.2754 H         1 <0>         0.1540
     42 H16         0.1173   -2.0683   -5.3551 H         1 <0>         0.1644
     43 H17         4.1811   -1.2917    7.6397 H         1 <0>         0.4554
@<TRIPOS>BOND
     1    1    2 1
     2    1   28 1
     3    1   29 1
     4    1   30 1
     5    2    3 1
     6    2    4 1
     7    2   18 1
     8    4    5 2
     9    4    6 am
    10    6    7 1
    11    6   31 1
    12    7    8 2
    13    8    9 1
    14    8   32 1
    15    9   17 1
    16    9   10 2
    17   10   15 ar
    18   10   11 ar
    19   11   12 ar
    20   11   33 1
    21   12   13 ar
    22   12   34 1
    23   13   14 ar
    24   13   35 1
    25   14   15 ar
    26   14   36 1
    27   15   16 2
    28   16   17 1
    29   16   43 1
    30   17   37 1
    31   17   38 1
    32   18   19 1
    33   19   24 ar
    34   19   20 ar
    35   20   21 ar
    36   20   39 1
    37   21   22 ar
    38   21   40 1
    39   22   23 ar
    40   22   41 1
    41   23   24 ar
    42   23   42 1
    43   24   25 1
    44   25   26 2
    45   25   27 1
@<TRIPOS>MOLECULE
ZINC29842766
   30    32     0     0     0
SMALL
USER_CHARGES

@<TRIPOS>ATOM
      1 C1         -0.0161    1.3371    0.0094 C.2       1 <0>         0.0072
      2 C2          1.2587    1.7711   -0.0004 C.2       1 <0>         0.0277
      3 N1          2.0558    0.6583   -0.0140 N.pl3     1 <0>        -0.4082
      4 C3          1.2397   -0.4176   -0.0120 C.cat     1 <0>         0.2941
      5 N2          0.0021   -0.0041    0.0020 N.pl3     1 <0>        -0.4739
      6 C4          3.5206    0.6384   -0.0281 C.3       1 <0>         0.0814
      7 C5          4.0443    0.6237    1.4094 C.3       1 <0>         0.1210
      8 N3          5.5091    0.6038    1.3953 N.pl3     1 <0>        -0.7153
      9 C6          6.2223    0.5878    2.6039 C.2       1 <0>         0.4086
     10 C7          7.5654    0.5742    2.7286 C.2       1 <0>        -0.0575
     11 N4          7.8623    0.5613    4.0945 N.pl3     1 <0>        -0.4014
     12 C8          8.9773    0.5445    4.9034 C.2       1 <0>         0.0157
     13 C9          8.8573    0.5355    6.2303 C.2       1 <0>        -0.1504
     14 S1          7.0837    0.5508    6.4399 S.3       1 <0>         0.2031
     15 C10         6.6434    0.5682    4.7177 C.2       1 <0>         0.2424
     16 N5          5.6844    0.5891    3.8354 N.2       1 <0>        -0.4645
     17 N6          8.5514    0.5727    1.6150 N.pl3     1 <0>         0.0477
     18 O1          8.9419   -0.4748    1.1548 O.2       1 <0>        -0.1125
     19 O2          8.9623    1.6190    1.1701 O.3       1 <0>        -0.1119
     20 H1         -0.8984    1.9597    0.0252 H         1 <0>         0.2261
     21 H2          1.5887    2.7994    0.0016 H         1 <0>         0.2248
     22 H3          1.5585   -1.4495   -0.0206 H         1 <0>         0.2619
     23 H4          3.8668   -0.2536   -0.5501 H         1 <0>         0.1308
     24 H5          3.8911    1.5261   -0.5408 H         1 <0>         0.1335
     25 H6          3.6980    1.5158    1.9313 H         1 <0>         0.0852
     26 H7          3.6737   -0.2640    1.9220 H         1 <0>         0.0831
     27 H8          5.9860    0.6017    0.5506 H         1 <0>         0.4184
     28 H9          9.9605    0.5382    4.4566 H         1 <0>         0.1821
     29 H10         9.6314    0.5220    6.9834 H         1 <0>         0.2337
     30 H11        -0.7811   -0.5763    0.0069 H         1 <0>         0.4670
@<TRIPOS>BOND
     1    1    5 1
     2    1    2 2
     3    1   20 1
     4    2    3 1
     5    2   21 1
     6    3    4 1
     7    3    6 1
     8    4    5 2
     9    4   22 1
    10    5   30 1
    11    6    7 1
    12    6   23 1
    13    6   24 1
    14    7    8 1
    15    7   25 1
    16    7   26 1
    17    8    9 1
    18    8   27 1
    19    9   16 1
    20    9   10 2
    21   10   11 1
    22   10   17 1
    23   11   15 1
    24   11   12 1
    25   12   13 2
    26   12   28 1
    27   13   14 1
    28   13   29 1
    29   14   15 1
    30   15   16 2
    31   17   18 2
    32   17   19 1
@<TRIPOS>MOLECULE
ZINC63871609
   46    49     0     0     0
SMALL
USER_CHARGES

@<TRIPOS>ATOM
      1 C1          0.1526    1.3332    0.2045 C.3       1 <0>        -0.1469
      2 C2          0.0619   -0.1904    0.0977 C.3       1 <0>        -0.0195
      3 C3          0.7385   -0.8279    1.3129 C.3       1 <0>        -0.1481
      4 C4         -1.3861   -0.6055    0.0537 C.2       1 <0>         0.2440
      5 N1         -2.2858   -0.3728    0.9702 N.2       1 <0>        -0.2721
      6 N2         -3.4147   -0.8680    0.6043 N.2       1 <0>        -0.1672
      7 C5         -3.2866   -1.4391   -0.5623 C.2       1 <0>        -0.3892
      8 N3         -1.9968   -1.2845   -0.9473 N.pl3     1 <0>        -0.3975
      9 C6         -1.3857   -1.7579   -2.1918 C.3       1 <0>         0.0292
     10 C7         -0.5158   -0.7703   -2.9720 C.3       1 <0>        -0.1556
     11 C8         -1.8974   -1.1579   -3.5029 C.3       1 <0>        -0.1775
     12 S1         -4.5571   -2.2544   -1.4710 S.o2      1 <0>         2.5365
     13 O1         -3.8679   -3.1370   -2.3458 O.2       1 <0>        -0.8978
     14 O2         -5.4429   -2.7604   -0.4818 O.2       1 <0>        -0.8642
     15 C9         -5.3677   -0.9391   -2.4216 C.3       1 <0>        -0.6051
     16 C10        -6.4834   -1.5291   -3.2451 C.2       1 <0>         0.1841
     17 C11        -7.7974   -1.3372   -2.8651 C.2       1 <0>        -0.2146
     18 C12        -8.8164   -1.8949   -3.6460 C.2       1 <0>         0.5201
     19 O3         -9.9878   -1.7431   -3.3373 O.2       1 <0>        -0.4198
     20 N4         -8.4835   -2.6030   -4.7464 N.am      1 <0>        -0.4013
     21 C13        -9.4634   -3.1518   -5.5166 C.2       1 <0>         0.1423
     22 C14        -9.1548   -3.8650   -6.6230 C.2       1 <0>        -0.1380
     23 C15        -7.8147   -4.0489   -6.9913 C.2       1 <0>         0.0553
     24 C16        -6.8266   -3.5038   -6.2273 C.2       1 <0>        -0.1785
     25 C17        -7.1676   -2.7641   -5.0801 C.cat     1 <0>         0.4333
     26 N5         -6.2036   -2.2263   -4.3351 N.pl3     1 <0>        -0.5513
     27 H1          1.1999    1.6335    0.2363 H         1 <0>         0.0797
     28 H2         -0.3295    1.7874   -0.6612 H         1 <0>         0.0556
     29 H3         -0.3481    1.6641    1.1144 H         1 <0>         0.0751
     30 H4          0.5626   -0.5213   -0.8122 H         1 <0>         0.0987
     31 H5          0.2379   -0.4970    2.2228 H         1 <0>         0.0742
     32 H6          0.6739   -1.9134    1.2368 H         1 <0>         0.0587
     33 H7          1.7859   -0.5277    1.3447 H         1 <0>         0.0793
     34 H8         -1.0886   -2.8066   -2.2003 H         1 <0>         0.1616
     35 H9         -0.3981    0.2317   -2.5594 H         1 <0>         0.1141
     36 H10         0.3540   -1.1691   -3.4940 H         1 <0>         0.1311
     37 H11        -1.9366   -1.8118   -4.3741 H         1 <0>         0.1308
     38 H12        -2.6887   -0.4109   -3.4396 H         1 <0>         0.0958
     39 H13        -5.7754   -0.1949   -1.7375 H         1 <0>         0.1977
     40 H14        -4.6401   -0.4664   -3.0813 H         1 <0>         0.1756
     41 H15        -8.0348   -0.7664   -1.9796 H         1 <0>         0.2121
     42 H16       -10.4986   -3.0161   -5.2404 H         1 <0>         0.2184
     43 H17        -9.9425   -4.2944   -7.2242 H         1 <0>         0.1947
     44 H18        -7.5670   -4.6190   -7.8745 H         1 <0>         0.1888
     45 H19        -5.7903   -3.6382   -6.5004 H         1 <0>         0.1965
     46 H20        -5.2772   -2.3512   -4.5943 H         1 <0>         0.4609
@<TRIPOS>BOND
     1    1    2 1
     2    1   27 1
     3    1   28 1
     4    1   29 1
     5    2    3 1
     6    2    4 1
     7    2   30 1
     8    3   31 1
     9    3   32 1
    10    3   33 1
    11    4    8 1
    12    4    5 2
    13    5    6 1
    14    6    7 2
    15    7    8 1
    16    7   12 1
    17    8    9 1
    18    9   11 1
    19    9   10 1
    20    9   34 1
    21   10   11 1
    22   10   35 1
    23   10   36 1
    24   11   37 1
    25   11   38 1
    26   12   13 2
    27   12   14 2
    28   12   15 1
    29   15   16 1
    30   15   39 1
    31   15   40 1
    32   16   26 1
    33   16   17 2
    34   17   18 1
    35   17   41 1
    36   18   19 2
    37   18   20 am
    38   20   25 1
    39   20   21 1
    40   21   22 2
    41   21   42 1
    42   22   23 1
    43   22   43 1
    44   23   24 2
    45   23   44 1
    46   24   25 1
    47   24   45 1
    48   25   26 2
    49   26   46 1
@<TRIPOS>MOLECULE
ZINC66731038
   52    54     0     0     0
SMALL
USER_CHARGES

@<TRIPOS>ATOM
      1 C1         -0.4523    1.4635    0.0336 C.3       1 <0>        -0.1431
      2 C2         -0.2041   -0.0228    0.0131 C.ar      1 <0>         0.2281
      3 C3         -0.2097   -0.7160   -1.1815 C.ar      1 <0>        -0.2551
      4 C4          0.0256   -2.0919   -1.1504 C.ar      1 <0>         0.4884
      5 N1          0.2453   -2.6808    0.0216 N.ar      1 <0>        -0.5269
      6 C5          0.2415   -1.9802    1.1374 C.ar      1 <0>         0.4399
      7 N2          0.0276   -0.6797    1.1408 N.ar      1 <0>        -0.5423
      8 C6          0.4946   -2.6844    2.4454 C.3       1 <0>        -0.1295
      9 N3          0.0298   -2.8319   -2.3217 N.pl3     1 <0>        -0.5388
     10 C7          0.0443   -4.3004   -2.2793 C.3       1 <0>         0.0968
     11 C8          1.2144   -4.8067   -3.1287 C.3       1 <0>        -0.1330
     12 C9          1.1080   -4.2196   -4.5380 C.3       1 <0>        -0.1460
     13 C10         1.1897   -2.6932   -4.4641 C.3       1 <0>         0.0751
     14 H1          2.1306   -2.4014   -3.9976 H         1 <0>         0.0931
     15 C11         0.0137   -2.1630   -3.6297 C.3       1 <0>         0.1061
     16 O1          1.1218   -2.1475   -5.7830 O.3       1 <0>        -0.3436
     17 C12         2.2843   -1.9744   -6.4314 C.2       1 <0>         0.4656
     18 O2          3.3250   -2.2762   -5.8969 O.2       1 <0>        -0.4947
     19 C13         2.2914   -1.4036   -7.8262 C.3       1 <0>        -0.1104
     20 C14         3.7324   -1.3111   -8.3320 C.3       1 <0>        -0.1094
     21 C15         3.7396   -0.7316   -9.7480 C.3       1 <0>        -0.0367
     22 C16         5.1589   -0.6405  -10.2463 C.2       1 <0>         0.2899
     23 N4          5.7994   -1.5675  -10.9030 N.2       1 <0>        -0.5396
     24 C17         7.0390   -1.1543  -11.1893 C.2       1 <0>         0.2530
     25 N5          7.2030    0.0474  -10.7155 N.2       1 <0>        -0.3386
     26 O3          5.9775    0.4084  -10.0960 O.3       1 <0>        -0.1062
     27 C18         8.0770   -1.9502  -11.9379 C.3       1 <0>        -0.0746
     28 H2          0.4956    1.9916   -0.0697 H         1 <0>         0.1196
     29 H3         -1.1104    1.7333   -0.7923 H         1 <0>         0.1182
     30 H4         -0.9216    1.7405    0.9776 H         1 <0>         0.1026
     31 H5         -0.3920   -0.2066   -2.1162 H         1 <0>         0.1853
     32 H6          1.5638   -2.6841    2.6574 H         1 <0>         0.1247
     33 H7         -0.0345   -2.1663    3.2453 H         1 <0>         0.1092
     34 H8          0.1375   -3.7122    2.3798 H         1 <0>         0.1260
     35 H9          0.1688   -4.6351   -1.2494 H         1 <0>         0.1133
     36 H10        -0.8926   -4.6868   -2.6805 H         1 <0>         0.0957
     37 H11         2.1551   -4.4950   -2.6748 H         1 <0>         0.0762
     38 H12         1.1796   -5.8947   -3.1842 H         1 <0>         0.1010
     39 H13         1.9256   -4.5978   -5.1516 H         1 <0>         0.0853
     40 H14         0.1561   -4.5112   -4.9819 H         1 <0>         0.0853
     41 H15        -0.9256   -2.3787   -4.1389 H         1 <0>         0.1120
     42 H16         0.1180   -1.0869   -3.4912 H         1 <0>         0.1043
     43 H17         1.7153   -2.0515   -8.4868 H         1 <0>         0.1188
     44 H18         1.8461   -0.4088   -7.8139 H         1 <0>         0.1168
     45 H19         4.3085   -0.6633   -7.6714 H         1 <0>         0.0831
     46 H20         4.1777   -2.3059   -8.3443 H         1 <0>         0.0872
     47 H21         3.1635   -1.3795  -10.4087 H         1 <0>         0.1198
     48 H22         3.2943    0.2632   -9.7358 H         1 <0>         0.1103
     49 H23         7.9906   -1.7468  -13.0053 H         1 <0>         0.0993
     50 H24         9.0712   -1.6659  -11.5932 H         1 <0>         0.0929
     51 H25         7.9199   -3.0134  -11.7567 H         1 <0>         0.0985
     52 H26         0.0365   -0.1965    1.9818 H         1 <0>         0.4472
@<TRIPOS>BOND
     1    1    2 1
     2    1   28 1
     3    1   29 1
     4    1   30 1
     5    2    7 ar
     6    2    3 ar
     7    3    4 ar
     8    3   31 1
     9    4    5 ar
    10    4    9 1
    11    5    6 ar
    12    6    7 ar
    13    6    8 1
    14    7   52 1
    15    8   32 1
    16    8   33 1
    17    8   34 1
    18    9   15 1
    19    9   10 1
    20   10   11 1
    21   10   35 1
    22   10   36 1
    23   11   12 1
    24   11   37 1
    25   11   38 1
    26   12   13 1
    27   12   39 1
    28   12   40 1
    29   13   14 1
    30   13   15 1
    31   13   16 1
    32   15   41 1
    33   15   42 1
    34   16   17 1
    35   17   18 2
    36   17   19 1
    37   19   20 1
    38   19   43 1
    39   19   44 1
    40   20   21 1
    41   20   45 1
    42   20   46 1
    43   21   22 1
    44   21   47 1
    45   21   48 1
    46   22   26 1
    47   22   23 2
    48   23   24 1
    49   24   25 2
    50   24   27 1
    51   25   26 1
    52   27   49 1
    53   27   50 1
    54   27   51 1
@<TRIPOS>MOLECULE
ZINC16900808
   43    45     0     0     0
SMALL
USER_CHARGES
2-[(3R)-1-[4-[(5-ethyl-1,3,4-thiadiazol-2-yl)sulfamoyl]phenyl]-2,5-dioxo-pyrrolidin-3-yl]sulfanylacetic acid
@<TRIPOS>ATOM
      1 C1          2.2747    6.8362   -5.5653 C.3       1 <0>        -0.1465
      2 C2          1.7099    5.4148   -5.5240 C.3       1 <0>        -0.0041
      3 C3          2.2707    4.6860   -4.3301 C.2       1 <0>        -0.0304
      4 N1          1.8122    4.6010   -3.0979 N.2       1 <0>        -0.2328
      5 N2          2.4057    3.9381   -2.2040 N.2       1 <0>        -0.4192
      6 C4          3.5381    3.2922   -2.4485 C.2       1 <0>         0.4116
      7 S1          3.7508    3.6894   -4.1815 S.3       1 <0>        -0.1376
      8 N3          4.3277    2.5245   -1.6053 N.2       1 <0>        -0.9842
      9 S2          3.8901    2.3180   -0.0216 S.o2      1 <0>         2.6307
     10 O1          3.5944    3.6103    0.4899 O.2       1 <0>        -0.9992
     11 O2          4.8712    1.4731    0.5640 O.2       1 <0>        -0.9793
     12 C5          2.3774    1.4145   -0.0126 C.ar      1 <0>        -0.6569
     13 C6          1.1707    2.0890   -0.0452 C.ar      1 <0>         0.0091
     14 C7         -0.0167    1.3835   -0.0377 C.ar      1 <0>        -0.1269
     15 C8          0.0021   -0.0041    0.0020 C.ar      1 <0>         0.1493
     16 C9          1.2151   -0.6784    0.0342 C.ar      1 <0>        -0.1291
     17 C10         2.3993    0.0325    0.0266 C.ar      1 <0>        -0.0147
     18 N4         -1.2016   -0.7229    0.0101 N.am      1 <0>        -0.5287
     19 C11        -1.5925   -1.4929   -1.0129 C.2       1 <0>         0.5294
     20 O3         -0.9745   -1.6598   -2.0424 O.2       1 <0>        -0.4722
     21 C12        -2.9264   -2.1246   -0.6792 C.3       1 <0>        -0.1284
     22 C13        -3.2466   -1.5725    0.7248 C.3       1 <0>        -0.1285
     23 H1         -4.1286   -0.9192    0.6521 H         1 <0>         0.1347
     24 C14        -2.0574   -0.6914    1.0392 C.2       1 <0>         0.5295
     25 O4         -1.9040   -0.0570    2.0608 O.2       1 <0>        -0.4550
     26 S3         -3.3757   -2.9239    1.9281 S.3       1 <0>        -0.1319
     27 C15        -3.7680   -2.0861    3.4884 C.3       1 <0>        -0.1380
     28 C16        -3.9043   -3.1086    4.5871 C.2       1 <0>         0.4830
     29 O5         -3.7523   -4.2820    4.3426 O.co2     1 <0>        -0.6193
     30 O6         -4.1944   -2.7156    5.8374 O.co2     1 <0>        -0.7544
     31 H2          1.8654    7.3682   -6.4368 H         1 <0>         0.0570
     32 H3          3.3710    6.7930   -5.6438 H         1 <0>         0.0551
     33 H4          1.9937    7.3693   -4.6450 H         1 <0>         0.0592
     34 H5          0.6136    5.4580   -5.4455 H         1 <0>         0.0863
     35 H6          1.9908    4.8817   -6.4443 H         1 <0>         0.0770
     36 H7          1.1567    3.1684   -0.0761 H         1 <0>         0.1546
     37 H8         -0.9589    1.9107   -0.0673 H         1 <0>         0.1278
     38 H9          1.2328   -1.7578    0.0648 H         1 <0>         0.1299
     39 H10         3.3433   -0.4916    0.0516 H         1 <0>         0.1429
     40 H11        -3.6731   -1.8217   -1.4280 H         1 <0>         0.1307
     41 H12        -2.8251   -3.2199   -0.6848 H         1 <0>         0.1323
     42 H13        -2.9605   -1.3828    3.7401 H         1 <0>         0.0997
     43 H14        -4.7139   -1.5350    3.3810 H         1 <0>         0.0875
@<TRIPOS>BOND
     1    1    2 1
     2    1   31 1
     3    1   32 1
     4    1   33 1
     5    2    3 1
     6    2   34 1
     7    2   35 1
     8    3    7 1
     9    3    4 2
    10    4    5 1
    11    5    6 2
    12    6    7 1
    13    6    8 1
    14    8    9 1
    15    9   10 2
    16    9   11 2
    17    9   12 1
    18   12   17 ar
    19   12   13 ar
    20   13   14 ar
    21   13   36 1
    22   14   15 ar
    23   14   37 1
    24   15   16 ar
    25   15   18 1
    26   16   17 ar
    27   16   38 1
    28   17   39 1
    29   18   24 am
    30   18   19 am
    31   19   20 2
    32   19   21 1
    33   21   22 1
    34   21   40 1
    35   21   41 1
    36   22   23 1
    37   22   24 1
    38   22   26 1
    39   24   25 2
    40   26   27 1
    41   27   28 1
    42   27   42 1
    43   27   43 1
    44   28   29 2
    45   28   30 1
@<TRIPOS>MOLECULE
ZINC16712687
   39    42     0     0     0
SMALL
USER_CHARGES

@<TRIPOS>ATOM
      1 C1         -0.0184    1.5028    0.0103 C.3       1 <0>        -0.1131
      2 C2          0.0021   -0.0041    0.0020 C.ar      1 <0>        -0.0836
      3 C3          0.0057   -0.6887   -1.1989 C.ar      1 <0>        -0.1168
      4 C4          0.0245   -2.0709   -1.2065 C.ar      1 <0>        -0.0853
      5 C5          0.0400   -2.7685   -0.0132 C.ar      1 <0>        -0.0869
      6 C6          0.0373   -2.0839    1.1877 C.ar      1 <0>        -0.0981
      7 C7          0.0229   -0.7016    1.1953 C.ar      1 <0>        -0.1228
      8 C8          0.0595   -4.2753   -0.0215 C.3       1 <0>         0.0198
      9 H1          0.0581   -4.6063   -1.0600 H         1 <0>         0.1389
     10 C9          1.3236   -4.7224    0.6020 C.2       1 <0>        -0.1644
     11 C10         1.5487   -5.7500    1.4421 C.2       1 <0>         0.0698
     12 N1          2.8592   -5.9338    1.8109 N.am      1 <0>        -0.6350
     13 H2          3.1016   -6.6714    2.3923 H         1 <0>         0.4101
     14 C11         3.8059   -5.0879    1.3640 C.2       1 <0>         0.4690
     15 O1          5.0016   -5.0997    1.5980 O.2       1 <0>        -0.4724
     16 S1          2.9413   -4.0110    0.4051 S.3       1 <0>         0.0897
     17 S2          0.1963   -6.7407    2.0265 S.3       1 <0>         0.0413
     18 C12        -1.1807   -6.2615    0.9935 C.3       1 <0>        -0.1483
     19 H3         -2.0980   -6.4952    1.5340 H         1 <0>         0.1664
     20 C13        -1.2262   -4.7704    0.6364 C.3       1 <0>        -0.0870
     21 H4         -1.5626   -4.1357    1.4562 H         1 <0>         0.1483
     22 C14        -2.2112   -4.8815   -0.5496 C.2       1 <0>         0.5387
     23 O2         -3.0088   -4.0423   -0.9093 O.2       1 <0>        -0.4601
     24 N2         -2.0107   -6.0936   -1.1071 N.am      1 <0>        -0.5468
     25 C15        -1.2681   -6.9244   -0.3476 C.2       1 <0>         0.5448
     26 O3         -0.7855   -7.9869   -0.6760 O.2       1 <0>        -0.4441
     27 C16        -2.5372   -6.4667   -2.4223 C.3       1 <0>         0.0258
     28 C17        -1.5281   -6.1163   -3.4853 C.2       1 <0>         0.4896
     29 O4         -0.4673   -5.6025   -3.1732 O.co2     1 <0>        -0.6811
     30 O5         -1.7724   -6.3465   -4.6574 O.co2     1 <0>        -0.6849
     31 H5          1.0042    1.8801    0.0026 H         1 <0>         0.0685
     32 H6         -0.5455    1.8639   -0.8728 H         1 <0>         0.0652
     33 H7         -0.5286    1.8543    0.9071 H         1 <0>         0.0639
     34 H8         -0.0064   -0.1436   -2.1312 H         1 <0>         0.1227
     35 H9          0.0266   -2.6057   -2.1448 H         1 <0>         0.1320
     36 H10         0.0491   -2.6289    2.1200 H         1 <0>         0.1205
     37 H11         0.0245   -0.1667    2.1335 H         1 <0>         0.1203
     38 H12        -2.7315   -7.5390   -2.4451 H         1 <0>         0.0907
     39 H13        -3.4647   -5.9254   -2.6093 H         1 <0>         0.0947
@<TRIPOS>BOND
     1    1    2 1
     2    1   31 1
     3    1   32 1
     4    1   33 1
     5    2    7 ar
     6    2    3 ar
     7    3    4 ar
     8    3   34 1
     9    4    5 ar
    10    4   35 1
    11    5    6 ar
    12    5    8 1
    13    6    7 ar
    14    6   36 1
    15    7   37 1
    16    8    9 1
    17    8   20 1
    18    8   10 1
    19   10   16 1
    20   10   11 2
    21   11   12 1
    22   11   17 1
    23   12   13 1
    24   12   14 am
    25   14   15 2
    26   14   16 1
    27   17   18 1
    28   18   19 1
    29   18   25 1
    30   18   20 1
    31   20   21 1
    32   20   22 1
    33   22   23 2
    34   22   24 am
    35   24   25 am
    36   24   27 1
    37   25   26 2
    38   27   28 1
    39   27   38 1
    40   27   39 1
    41   28   29 2
    42   28   30 1
@<TRIPOS>MOLECULE
ZINC40122753
   43    45     0     0     0
SMALL
USER_CHARGES

@<TRIPOS>ATOM
      1 C1         -0.0173    1.4248    0.0099 C.3       1 <0>         0.0412
      2 O1          0.0021   -0.0041    0.0020 O.3       1 <0>        -0.3725
      3 C2          0.6008   -0.6021   -1.0469 C.2       1 <0>         0.5041
      4 O2          1.0929    0.0714   -1.9307 O.2       1 <0>        -0.4650
      5 C3          0.6586   -2.0719   -1.1221 C.ar      1 <0>        -0.2006
      6 C4          0.0888   -2.8510   -0.1107 C.ar      1 <0>        -0.0035
      7 C5          0.1461   -4.2259   -0.1875 C.ar      1 <0>        -0.1538
      8 C6          0.7668   -4.8421   -1.2643 C.ar      1 <0>        -0.0228
      9 C7          1.3335   -4.0868   -2.2699 C.ar      1 <0>        -0.2540
     10 C8          1.2812   -2.6994   -2.2127 C.ar      1 <0>         0.3383
     11 N1          1.8465   -1.9373   -3.2269 N.2       1 <0>        -1.0285
     12 S1          2.5799   -2.6818   -4.5115 S.o2      1 <0>         2.6060
     13 O3          3.7258   -3.3455   -3.9962 O.2       1 <0>        -1.0164
     14 O4          1.5574   -3.3673   -5.2214 O.2       1 <0>        -1.0248
     15 C9          3.1714   -1.4126   -5.5810 C.ar      1 <0>        -0.6065
     16 C10         2.3571   -0.9226   -6.5855 C.ar      1 <0>        -0.0241
     17 C11         2.8137    0.0740   -7.4290 C.ar      1 <0>        -0.1343
     18 C12         4.0905    0.5829   -7.2670 C.ar      1 <0>         0.1129
     19 C13         4.9114    0.0887   -6.2546 C.ar      1 <0>         0.1005
     20 C14         4.4465   -0.9055   -5.4097 C.ar      1 <0>        -0.0233
     21 N2          6.2036    0.6113   -6.1031 N.am      1 <0>        -0.5122
     22 C15         6.5149    1.7751   -6.7143 C.2       1 <0>         0.4859
     23 O5          7.6355    2.2301   -6.6232 O.2       1 <0>        -0.5237
     24 C16         5.4637    2.5058   -7.5105 C.3       1 <0>         0.0558
     25 O6          4.5555    1.5634   -8.0865 O.3       1 <0>        -0.3030
     26 C17         7.2009   -0.0937   -5.2939 C.3       1 <0>         0.0320
     27 C18         7.9681   -1.0536   -6.1663 C.2       1 <0>         0.4898
     28 O7          7.7061   -1.1407   -7.3538 O.co2     1 <0>        -0.6814
     29 O8          8.8507   -1.7430   -5.6845 O.co2     1 <0>        -0.6951
     30 Cl1        -0.5616   -5.1914    1.0697 Cl        1 <0>        -0.1121
     31 H1          1.0053    1.8021    0.0021 H         1 <0>         0.0520
     32 H2         -0.5445    1.7859   -0.8732 H         1 <0>         0.0514
     33 H3         -0.5275    1.7763    0.9067 H         1 <0>         0.0869
     34 H4         -0.3953   -2.3761    0.7299 H         1 <0>         0.1287
     35 H5          0.8069   -5.9202   -1.3154 H         1 <0>         0.1191
     36 H6          1.8149   -4.5744   -3.1047 H         1 <0>         0.1166
     37 H7          1.3609   -1.3198   -6.7121 H         1 <0>         0.1437
     38 H8          2.1752    0.4540   -8.2127 H         1 <0>         0.1395
     39 H9          5.0794   -1.2863   -4.6218 H         1 <0>         0.1454
     40 H10         4.9166    3.1825   -6.8541 H         1 <0>         0.0917
     41 H11         5.9430    3.0793   -8.3039 H         1 <0>         0.1382
     42 H12         7.8894    0.6286   -4.8554 H         1 <0>         0.0904
     43 H13         6.6993   -0.6462   -4.4994 H         1 <0>         0.0879
@<TRIPOS>BOND
     1    1    2 1
     2    1   31 1
     3    1   32 1
     4    1   33 1
     5    2    3 1
     6    3    4 2
     7    3    5 1
     8    5   10 ar
     9    5    6 ar
    10    6    7 ar
    11    6   34 1
    12    7    8 ar
    13    7   30 1
    14    8    9 ar
    15    8   35 1
    16    9   10 ar
    17    9   36 1
    18   10   11 1
    19   11   12 1
    20   12   13 2
    21   12   14 2
    22   12   15 1
    23   15   20 ar
    24   15   16 ar
    25   16   17 ar
    26   16   37 1
    27   17   18 ar
    28   17   38 1
    29   18   25 1
    30   18   19 ar
    31   19   20 ar
    32   19   21 1
    33   20   39 1
    34   21   22 am
    35   21   26 1
    36   22   23 2
    37   22   24 1
    38   24   25 1
    39   24   40 1
    40   24   41 1
    41   26   27 1
    42   26   42 1
    43   26   43 1
    44   27   28 2
    45   27   29 1
@<TRIPOS>MOLECULE
ZINC15856879
   47    49     0     0     0
SMALL
USER_CHARGES

@<TRIPOS>ATOM
      1 C1         -2.8392   -3.2952    1.1811 C.2       1 <0>        -0.2192
      2 C2         -3.2536   -2.1191    0.7797 C.2       1 <0>        -0.1007
      3 C3         -2.2742   -1.1344    0.1946 C.3       1 <0>         0.1352
      4 N1         -2.7373   -0.7135   -1.1300 N.pl3     1 <0>        -0.5010
      5 C4         -2.3553   -1.4131   -2.2392 C.2       1 <0>         0.5069
      6 C5         -2.7977   -1.0050   -3.4672 C.2       1 <0>        -0.3545
      7 C6         -3.6291    0.1184   -3.5484 C.2       1 <0>         0.4670
      8 O1         -4.0809    0.5428   -4.7505 O.3       1 <0>        -0.7292
      9 N2         -3.9727    0.7650   -2.4420 N.2       1 <0>        -0.6066
     10 C7         -3.5424    0.3582   -1.2504 C.2       1 <0>         0.5298
     11 S1         -4.0153    1.2171    0.1530 S.2       1 <0>        -0.8607
     12 C8         -2.3962   -1.7521   -4.7129 C.3       1 <0>         0.1641
     13 H1         -2.8529   -1.2801   -5.5828 H         1 <0>         0.0588
     14 C9         -0.8962   -1.7226   -4.8549 C.ar      1 <0>         0.0388
     15 C10        -0.0941   -2.5525   -4.0866 C.ar      1 <0>        -0.1104
     16 C11         1.2778   -2.4976   -4.2442 C.ar      1 <0>         0.0438
     17 N3          1.8244   -1.6688   -5.1121 N.ar      1 <0>        -0.5210
     18 C12         1.0928   -0.8654   -5.8593 C.ar      1 <0>         0.0546
     19 C13        -0.2858   -0.8691   -5.7611 C.ar      1 <0>        -0.1735
     20 C14        -2.8634   -3.1815   -4.6139 C.2       1 <0>        -0.3741
     21 C15        -3.7751   -3.5469   -3.6681 C.2       1 <0>         0.4623
     22 N4         -4.1862   -4.8533   -3.5960 N.pl3     1 <0>        -0.5776
     23 C16        -3.6958   -5.7706   -4.4498 C.2       1 <0>         0.5567
     24 N5         -2.7952   -5.4302   -5.3898 N.am      1 <0>        -0.4951
     25 C17        -2.3696   -4.1561   -5.4995 C.2       1 <0>         0.5108
     26 O2         -1.5581   -3.8517   -6.3565 O.2       1 <0>        -0.5705
     27 C18        -2.2784   -6.4508   -6.3049 C.3       1 <0>         0.1268
     28 C19        -3.1563   -6.5199   -7.5278 C.2       1 <0>        -0.1391
     29 C20        -2.6313   -6.3794   -8.7198 C.2       1 <0>        -0.1895
     30 S2         -4.2252   -7.3948   -4.3380 S.2       1 <0>        -0.7362
     31 O3         -4.2688   -2.6300   -2.8091 O.3       1 <0>        -0.5909
     32 O4         -1.5517   -2.4924   -2.1249 O.3       1 <0>        -0.7027
     33 H2         -3.5411   -4.0009    1.6004 H         1 <0>         0.0790
     34 H3         -1.7965   -3.5608    1.0887 H         1 <0>         0.0871
     35 H4         -4.2971   -1.8552    0.8680 H         1 <0>         0.1022
     36 H5         -2.2002   -0.2644    0.8470 H         1 <0>         0.0983
     37 H6         -1.2954   -1.6054    0.1046 H         1 <0>         0.0705
     38 H7         -0.5358   -3.2330   -3.3736 H         1 <0>         0.1708
     39 H8          1.9096   -3.1408   -3.6496 H         1 <0>         0.1257
     40 H9          1.5763   -0.1998   -6.5590 H         1 <0>         0.1269
     41 H10        -0.8798   -0.2123   -6.3793 H         1 <0>         0.1136
     42 H11        -1.2620   -6.1917   -6.6014 H         1 <0>         0.0929
     43 H12        -2.2752   -7.4193   -5.8047 H         1 <0>         0.1148
     44 H13        -4.2182   -6.6853   -7.4216 H         1 <0>         0.1107
     45 H14        -1.5693   -6.2139   -8.8260 H         1 <0>         0.0958
     46 H15        -3.2604   -6.4289   -9.5962 H         1 <0>         0.0914
     47 H16        -4.8345   -5.1180   -2.9248 H         1 <0>         0.4172
@<TRIPOS>BOND
     1    1    2 2
     2    1   33 1
     3    1   34 1
     4    2    3 1
     5    2   35 1
     6    3   36 1
     7    3   37 1
     8    3    4 1
     9    4   10 1
    10    4    5 1
    11    5   32 1
    12    5    6 2
    13    6   12 1
    14    6    7 1
    15    7    8 1
    16    7    9 2
    17    9   10 1
    18   10   11 2
    19   12   13 1
    20   12   14 1
    21   12   20 1
    22   14   19 ar
    23   14   15 ar
    24   15   16 ar
    25   15   38 1
    26   16   17 ar
    27   16   39 1
    28   17   18 ar
    29   18   19 ar
    30   18   40 1
    31   19   41 1
    32   20   25 1
    33   20   21 2
    34   21   22 1
    35   21   31 1
    36   22   23 1
    37   22   47 1
    38   23   24 1
    39   23   30 2
    40   24   25 am
    41   24   27 1
    42   25   26 2
    43   27   28 1
    44   27   42 1
    45   27   43 1
    46   28   29 2
    47   28   44 1
    48   29   45 1
    49   29   46 1
@<TRIPOS>MOLECULE
ZINC63216410
   25    26     0     0     0
SMALL
USER_CHARGES

@<TRIPOS>ATOM
      1 C1         -0.0158    1.3120    0.0093 C.ar      1 <0>        -0.1024
      2 C2          1.1735    2.0305    0.0018 C.ar      1 <0>         0.0870
      3 N1          2.3331    1.4004   -0.0132 N.ar      1 <0>        -0.5809
      4 C3          2.3671    0.0721   -0.0206 C.ar      1 <0>         0.4134
      5 C4          1.1639   -0.6542   -0.0126 C.ar      1 <0>        -0.0122
      6 N2          0.0021   -0.0041    0.0020 N.ar      1 <0>        -0.3872
      7 C5          1.1882   -2.1280   -0.0212 C.2       1 <0>         0.5456
      8 O1          2.2573   -2.7221   -0.0355 O.co2     1 <0>        -0.6467
      9 O2          0.1391   -2.7570   -0.0142 O.co2     1 <0>        -0.7102
     10 N3          3.5784   -0.5914   -0.0367 N.2       1 <0>        -0.9684
     11 S1          4.9935    0.2687   -0.0467 S.o2      1 <0>         2.5907
     12 O3          5.0416    0.9571   -1.2889 O.2       1 <0>        -1.0213
     13 O4          5.0673    0.9437    1.2016 O.2       1 <0>        -1.0235
     14 C6          6.3128   -0.8990   -0.0666 C.ar      1 <0>        -0.6304
     15 C7          6.8467   -1.3747    1.1211 C.ar      1 <0>        -0.0084
     16 C8          7.8853   -2.2938    1.0569 C.ar      1 <0>         0.0169
     17 C9          8.3489   -2.7008   -0.1827 C.ar      1 <0>         0.1008
     18 N4          7.8154   -2.2256   -1.2907 N.ar      1 <0>        -0.4772
     19 C10         6.8242   -1.3561   -1.2663 C.ar      1 <0>         0.1834
     20 F1          8.4365   -2.7841    2.1887 F         1 <0>        -0.1354
     21 H1         -0.9599    1.8362    0.0256 H         1 <0>         0.1325
     22 H2          1.1488    3.1102    0.0078 H         1 <0>         0.1317
     23 H3          6.4641   -1.0382    2.0734 H         1 <0>         0.1592
     24 H4          9.1567   -3.4152   -0.2426 H         1 <0>         0.1653
     25 H5          6.4101   -0.9932   -2.1953 H         1 <0>         0.1779
@<TRIPOS>BOND
     1    1    6 ar
     2    1    2 ar
     3    1   21 1
     4    2    3 ar
     5    2   22 1
     6    3    4 ar
     7    4    5 ar
     8    4   10 1
     9    5    6 ar
    10    5    7 1
    11    7    8 2
    12    7    9 1
    13   10   11 1
    14   11   12 2
    15   11   13 2
    16   11   14 1
    17   14   19 ar
    18   14   15 ar
    19   15   16 ar
    20   15   23 1
    21   16   17 ar
    22   16   20 1
    23   17   18 ar
    24   17   24 1
    25   18   19 ar
    26   19   25 1
@<TRIPOS>MOLECULE
ZINC09144550
   36    37     0     0     0
SMALL
USER_CHARGES
2-(tetrahydrofuran-2-ylmethylcarbamoyl)cyclohexene-1-carboxylic acid
@<TRIPOS>ATOM
      1 C1         -3.1398    3.0887    1.2381 C.3       1 <0>        -0.1158
      2 C2         -3.9278    2.9150   -0.0659 C.3       1 <0>        -0.1223
      3 C3         -3.0064    3.2518   -1.2400 C.3       1 <0>        -0.0681
      4 C4         -1.7085    2.5093   -1.1075 C.2       1 <0>        -0.1032
      5 C5         -1.2902    1.9556    0.0257 C.2       1 <0>        -0.1577
      6 C6         -2.0714    1.9935    1.3071 C.3       1 <0>        -0.0643
      7 C7          0.0123    1.2594    0.0230 C.2       1 <0>         0.5990
      8 O1          0.0520    0.0449    0.0067 O.2       1 <0>        -0.5642
      9 N1          1.1568    1.9711    0.0328 N.am      1 <0>        -0.7107
     10 C8          2.4488    1.2806    0.0240 C.3       1 <0>         0.1410
     11 C9          3.5785    2.3123    0.0381 C.3       1 <0>         0.0634
     12 H1          3.4412    3.0353   -0.7659 H         1 <0>         0.0781
     13 C10         4.9485    1.6114   -0.0971 C.3       1 <0>        -0.1468
     14 C11         5.8817    2.4307    0.8223 C.3       1 <0>        -0.1539
     15 C12         4.9651    3.5296    1.4042 C.3       1 <0>         0.0433
     16 O2          3.6314    2.9825    1.3163 O.3       1 <0>        -0.3685
     17 C13        -0.8499    2.3879   -2.3011 C.2       1 <0>         0.4716
     18 O3          0.1492    1.6984   -2.2628 O.co2     1 <0>        -0.6042
     19 H2         -2.6649    4.0697    1.2509 H         1 <0>         0.0641
     20 H3         -3.8152    2.9977    2.0888 H         1 <0>         0.0625
     21 H4         -4.7848    3.5886   -0.0682 H         1 <0>         0.0619
     22 H5         -4.2693    1.8836   -0.1527 H         1 <0>         0.0620
     23 H6         -2.8101    4.3239   -1.2493 H         1 <0>         0.0749
     24 H7         -3.4919    2.9672   -2.1736 H         1 <0>         0.0796
     25 H8         -2.5494    1.0272    1.4676 H         1 <0>         0.0744
     26 H9         -1.3955    2.2023    2.1363 H         1 <0>         0.0671
     27 H10         1.1250    2.9405    0.0458 H         1 <0>         0.3942
     28 H11         2.5268    0.6443    0.9055 H         1 <0>         0.0632
     29 H12         2.5273    0.6681   -0.8743 H         1 <0>         0.0800
     30 H13         4.8848    0.5788    0.2460 H         1 <0>         0.0791
     31 H14         5.2977    1.6512   -1.1289 H         1 <0>         0.0801
     32 H15         6.2793    1.8031    1.6199 H         1 <0>         0.0734
     33 H16         6.6936    2.8736    0.2454 H         1 <0>         0.0747
     34 H17         5.2254    3.7298    2.4435 H         1 <0>         0.0881
     35 H18         5.0428    4.4414    0.8119 H         1 <0>         0.0578
     36 O4         -1.1742    3.0421   -3.4337 O.co2     1 <0>        -0.7539
@<TRIPOS>BOND
     1    1    6 1
     2    1    2 1
     3    1   19 1
     4    1   20 1
     5    2    3 1
     6    2   21 1
     7    2   22 1
     8    3    4 1
     9    3   23 1
    10    3   24 1
    11    4    5 2
    12    4   17 1
    13    5    6 1
    14    5    7 1
    15    6   25 1
    16    6   26 1
    17    7    8 2
    18    7    9 am
    19    9   10 1
    20    9   27 1
    21   10   11 1
    22   10   28 1
    23   10   29 1
    24   11   12 1
    25   11   16 1
    26   11   13 1
    27   13   14 1
    28   13   30 1
    29   13   31 1
    30   14   15 1
    31   14   32 1
    32   14   33 1
    33   15   16 1
    34   15   34 1
    35   15   35 1
    36   17   18 2
    37   17   36 1
@<TRIPOS>MOLECULE
ZINC36133068
   37    39     0     0     0
SMALL
USER_CHARGES

@<TRIPOS>ATOM
      1 C1         -0.5800    1.5813   -0.4050 C.3       1 <0>        -0.1569
      2 C2          0.8693    1.0980   -0.4889 C.3       1 <0>        -0.2068
      3 C3         -0.2651    0.0870   -0.3097 C.3       1 <0>         0.0828
      4 N1         -0.6115   -0.7519   -1.4597 N.am      1 <0>        -0.5796
      5 C4          0.0018   -0.4949   -2.7651 C.3       1 <0>         0.1220
      6 C5          1.2946   -1.3038   -2.8892 C.3       1 <0>         0.0629
      7 O1          0.9858   -2.6990   -2.8847 O.3       1 <0>        -0.5466
      8 C6         -1.4944   -1.7601   -1.3167 C.2       1 <0>         0.5467
      9 O2         -1.7042   -2.5180   -2.2400 O.2       1 <0>        -0.4931
     10 C7         -2.2209   -1.9458   -0.0095 C.3       1 <0>        -0.0908
     11 H1         -1.5498   -1.7635    0.8299 H         1 <0>         0.0703
     12 C8         -2.8341   -3.3796    0.0791 C.3       1 <0>        -0.0563
     13 H2         -2.1441   -4.1851    0.3303 H         1 <0>         0.0854
     14 C9         -4.0140   -3.1219    1.0864 C.3       1 <0>        -0.1218
     15 C10        -4.6579   -2.0034    0.1879 C.3       1 <0>        -0.0628
     16 H3         -5.6061   -1.5879    0.5292 H         1 <0>         0.0853
     17 C11        -3.4531   -1.0113    0.0659 C.3       1 <0>        -0.1441
     18 H4         -3.3933   -0.3683    0.9440 H         1 <0>         0.0626
     19 C12        -3.5699   -0.1861   -1.1897 C.2       1 <0>         0.4978
     20 O3         -3.8780   -0.7183   -2.2425 O.co2     1 <0>        -0.6646
     21 O4         -3.3561    1.0137   -1.1528 O.co2     1 <0>        -0.6962
     22 C13        -4.6811   -2.7330   -1.1608 C.2       1 <0>        -0.1135
     23 C14        -3.6117   -3.5345   -1.2336 C.2       1 <0>        -0.1604
     24 H5         -0.8888    2.0898    0.5083 H         1 <0>         0.0923
     25 H6         -1.0448    1.9401   -1.3233 H         1 <0>         0.1070
     26 H7          1.3578    1.1388   -1.4625 H         1 <0>         0.0910
     27 H8          1.5139    1.2885    0.3691 H         1 <0>         0.0934
     28 H9         -0.3668   -0.3875    0.6663 H         1 <0>         0.1168
     29 H10        -0.6886   -0.7899   -3.5553 H         1 <0>         0.0881
     30 H11         0.2276    0.5674   -2.8576 H         1 <0>         0.0810
     31 H12         1.7965   -1.0457   -3.8218 H         1 <0>         0.0434
     32 H13         1.9492   -1.0738   -2.0486 H         1 <0>         0.0410
     33 H14         1.7600   -3.2734   -2.9605 H         1 <0>         0.3628
     34 H15        -4.6625   -3.9905    1.2007 H         1 <0>         0.0687
     35 H16        -3.6675   -2.7386    2.0461 H         1 <0>         0.0636
     36 H17        -5.4313   -2.6167   -1.9289 H         1 <0>         0.1111
     37 H18        -3.3426   -4.1829   -2.0543 H         1 <0>         0.1173
@<TRIPOS>BOND
     1    1    3 1
     2    1    2 1
     3    1   24 1
     4    1   25 1
     5    2    3 1
     6    2   26 1
     7    2   27 1
     8    3    4 1
     9    3   28 1
    10    4    5 1
    11    4    8 am
    12    5    6 1
    13    5   29 1
    14    5   30 1
    15    6    7 1
    16    6   31 1
    17    6   32 1
    18    7   33 1
    19    8    9 2
    20    8   10 1
    21   10   11 1
    22   10   17 1
    23   10   12 1
    24   12   13 1
    25   12   23 1
    26   12   14 1
    27   14   15 1
    28   14   34 1
    29   14   35 1
    30   15   16 1
    31   15   17 1
    32   15   22 1
    33   17   18 1
    34   17   19 1
    35   19   20 2
    36   19   21 1
    37   22   23 2
    38   22   36 1
    39   23   37 1
@<TRIPOS>MOLECULE
ZINC40575646
   37    39     0     0     0
SMALL
USER_CHARGES

@<TRIPOS>ATOM
      1 C1          1.5952   -0.9922    1.9175 C.3       1 <0>        -0.1646
      2 C2          2.0581    0.2075    1.0884 C.3       1 <0>         0.1948
      3 H1          1.1937    0.8069    0.8026 H         1 <0>         0.0873
      4 C3          3.0187    1.0612    1.9187 C.3       1 <0>        -0.1624
      5 C4          3.4866    0.4953    3.2610 C.3       1 <0>        -0.1838
      6 C5          2.4877    1.6537    3.2256 C.3       1 <0>        -0.1709
      7 N1          2.7433   -0.2668   -0.1165 N.am      1 <0>        -0.7173
      8 C6          2.0310   -0.5870   -1.2149 C.2       1 <0>         0.7352
      9 O1          0.8158   -0.5711   -1.1774 O.2       1 <0>        -0.5954
     10 N2          2.6656   -0.9247   -2.3549 N.am      1 <0>        -0.5390
     11 C7          2.0367   -1.1759   -3.5786 C.ar      1 <0>         0.1887
     12 C8          0.6782   -1.1416   -3.8988 C.ar      1 <0>        -0.1430
     13 C9          0.2588   -1.4258   -5.1808 C.ar      1 <0>        -0.0974
     14 C10         1.1812   -1.7475   -6.1597 C.ar      1 <0>        -0.1613
     15 C11         2.5279   -1.7835   -5.8502 C.ar      1 <0>        -0.0793
     16 C12         2.9529   -1.4989   -4.5665 C.ar      1 <0>        -0.1433
     17 C13         4.3402   -1.4666   -3.9657 C.3       1 <0>        -0.0599
     18 C14         4.1163   -1.0765   -2.4955 C.3       1 <0>         0.0491
     19 H2          4.4796   -1.8657   -1.8373 H         1 <0>         0.0794
     20 C15         4.8105    0.2248   -2.1858 C.2       1 <0>         0.4868
     21 O2          6.0238    0.2559   -2.0695 O.co2     1 <0>        -0.6852
     22 O3          4.1589    1.2465   -2.0516 O.co2     1 <0>        -0.6655
     23 H3          0.9109   -1.6003    1.3260 H         1 <0>         0.0620
     24 H4          2.4596   -1.5915    2.2033 H         1 <0>         0.0581
     25 H5          1.0854   -0.6393    2.8140 H         1 <0>         0.0620
     26 H6          3.7304    1.6579    1.3481 H         1 <0>         0.1165
     27 H7          3.1101   -0.4852    3.5525 H         1 <0>         0.1006
     28 H8          4.5064    0.7195    3.5737 H         1 <0>         0.0922
     29 H9          2.8503    2.6400    3.5150 H         1 <0>         0.0940
     30 H10         1.4540    1.4353    3.4938 H         1 <0>         0.0942
     31 H11         3.7097   -0.3504   -0.1237 H         1 <0>         0.4029
     32 H12        -0.0473   -0.8918   -3.1388 H         1 <0>         0.1372
     33 H13        -0.7936   -1.3973   -5.4215 H         1 <0>         0.1202
     34 H14         0.8502   -1.9704   -7.1633 H         1 <0>         0.1186
     35 H15         3.2496   -2.0345   -6.6135 H         1 <0>         0.1194
     36 H16         4.8074   -2.4490   -4.0348 H         1 <0>         0.0816
     37 H17         4.9536   -0.7169   -4.4655 H         1 <0>         0.0876
@<TRIPOS>BOND
     1    1    2 1
     2    1   23 1
     3    1   24 1
     4    1   25 1
     5    2    3 1
     6    2    4 1
     7    2    7 1
     8    4    6 1
     9    4    5 1
    10    4   26 1
    11    5    6 1
    12    5   27 1
    13    5   28 1
    14    6   29 1
    15    6   30 1
    16    7    8 am
    17    7   31 1
    18    8    9 2
    19    8   10 am
    20   10   18 1
    21   10   11 1
    22   11   16 ar
    23   11   12 ar
    24   12   13 ar
    25   12   32 1
    26   13   14 ar
    27   13   33 1
    28   14   15 ar
    29   14   34 1
    30   15   16 ar
    31   15   35 1
    32   16   17 1
    33   17   18 1
    34   17   36 1
    35   17   37 1
    36   18   19 1
    37   18   20 1
    38   20   21 2
    39   20   22 1
@<TRIPOS>MOLECULE
ZINC49222199
   30    31     0     0     0
SMALL
USER_CHARGES

@<TRIPOS>ATOM
      1 C1         -0.8459    0.9063    0.2064 C.3       1 <0>        -0.1622
      2 C2         -0.5966   -0.5929    0.0297 C.3       1 <0>         0.1171
      3 N1          0.2766   -0.8098   -1.1265 N.am      1 <0>        -0.7326
      4 C3          0.6339   -2.0615   -1.4756 C.2       1 <0>         0.5218
      5 O1          0.2326   -3.0084   -0.8327 O.2       1 <0>        -0.5184
      6 C4          1.5322   -2.2846   -2.6649 C.3       1 <0>         0.1009
      7 H1          2.4821   -1.7750   -2.5035 H         1 <0>         0.1631
      8 C5          0.8617   -1.7274   -3.9222 C.3       1 <0>        -0.1580
      9 N2          1.7708   -3.7201   -2.8342 N.pl3     1 <0>        -0.4734
     10 C6          0.7305   -4.5654   -3.1082 C.2       1 <0>         0.5411
     11 O2         -0.5291   -4.0959   -3.2272 O.3       1 <0>        -0.6115
     12 C7          0.9993   -5.9003   -3.2591 C.2       1 <0>        -0.3328
     13 C8          2.3171   -6.4104   -3.1377 C.2       1 <0>         0.2079
     14 C9          2.4413   -7.7954   -3.3172 C.2       1 <0>        -0.1597
     15 C10         1.3527   -8.5470   -3.5854 C.2       1 <0>        -0.1321
     16 S1          0.0326   -7.3458   -3.6080 S.3       1 <0>         0.0980
     17 N3          3.2866   -5.5013   -2.8646 N.2       1 <0>        -0.5382
     18 C11         3.0152   -4.2185   -2.7272 C.2       1 <0>         0.5137
     19 S2          4.3023   -3.1411   -2.3903 S.2       1 <0>        -0.7233
     20 H2          0.1040    1.4160    0.3679 H         1 <0>         0.0616
     21 H3         -1.3236    1.3033   -0.6893 H         1 <0>         0.0607
     22 H4         -1.4956    1.0677    1.0666 H         1 <0>         0.0706
     23 H5         -0.1189   -0.9899    0.9254 H         1 <0>         0.0636
     24 H6         -1.5465   -1.1026   -0.1318 H         1 <0>         0.0644
     25 H7          0.5976   -0.0525   -1.6407 H         1 <0>         0.3986
     26 H8          0.7895   -0.6425   -3.8450 H         1 <0>         0.0703
     27 H9          1.4553   -1.9906   -4.7976 H         1 <0>         0.0662
     28 H10        -0.1375   -2.1520   -4.0196 H         1 <0>         0.0882
     29 H11         3.4120   -8.2627   -3.2408 H         1 <0>         0.1411
     30 H12         1.2948   -9.6133   -3.7470 H         1 <0>         0.1933
@<TRIPOS>BOND
     1    1    2 1
     2    1   20 1
     3    1   21 1
     4    1   22 1
     5    2    3 1
     6    2   23 1
     7    2   24 1
     8    3    4 am
     9    3   25 1
    10    4    5 2
    11    4    6 1
    12    6    7 1
    13    6    8 1
    14    6    9 1
    15    8   26 1
    16    8   27 1
    17    8   28 1
    18    9   18 1
    19    9   10 1
    20   10   11 1
    21   10   12 2
    22   12   16 1
    23   12   13 1
    24   13   14 1
    25   13   17 2
    26   14   15 2
    27   14   29 1
    28   15   16 1
    29   15   30 1
    30   17   18 1
    31   18   19 2
@<TRIPOS>MOLECULE
ZINC61176956
   41    41     0     0     0
SMALL
USER_CHARGES

@<TRIPOS>ATOM
      1 C1          0.5680    0.9136   -1.2332 C.3       1 <0>        -0.1633
      2 C2          0.3499   -0.5999   -1.1797 C.3       1 <0>         0.2006
      3 C3          0.6213   -1.2033   -2.5593 C.3       1 <0>        -0.1304
      4 C4          0.4033   -2.7167   -2.5058 C.3       1 <0>        -0.1140
      5 C5          1.3586   -3.3338   -1.4823 C.3       1 <0>        -0.1167
      6 C6          1.0871   -2.7303   -0.1027 C.3       1 <0>        -0.1178
      7 C7          1.3052   -1.2169   -0.1562 C.3       1 <0>        -0.1199
      8 N1         -1.0335   -0.8803   -0.7876 N.am      1 <0>        -0.7458
      9 C8         -2.0531   -0.4311   -1.5459 C.2       1 <0>         0.7201
     10 O1         -1.8248    0.2070   -2.5554 O.2       1 <0>        -0.5656
     11 N2         -3.3258   -0.6891   -1.1852 N.am      1 <0>        -0.6050
     12 C9         -3.6009   -1.4580    0.0312 C.3       1 <0>         0.0806
     13 C10        -4.4342   -0.2008   -2.0094 C.3       1 <0>         0.1144
     14 C11        -4.3105   -0.7748   -3.4222 C.3       1 <0>        -0.1374
     15 C12        -5.7623   -0.6446   -1.3929 C.3       1 <0>        -0.1315
     16 C13        -4.3879    1.3042   -2.0728 C.2       1 <0>         0.5044
     17 O2         -3.5796    1.9182   -1.3975 O.co2     1 <0>        -0.6770
     18 O3         -5.1587    1.9077   -2.7995 O.co2     1 <0>        -0.7037
     19 H1          1.5973    1.1223   -1.5250 H         1 <0>         0.0503
     20 H2         -0.1126    1.3532   -1.9624 H         1 <0>         0.0883
     21 H3          0.3746    1.3435   -0.2504 H         1 <0>         0.0501
     22 H4         -0.0592   -0.7637   -3.2884 H         1 <0>         0.0898
     23 H5          1.6506   -0.9946   -2.8510 H         1 <0>         0.0596
     24 H6         -0.6260   -2.9254   -2.2140 H         1 <0>         0.0609
     25 H7          0.5966   -3.1467   -3.4886 H         1 <0>         0.0548
     26 H8          1.2032   -4.4120   -1.4441 H         1 <0>         0.0555
     27 H9          2.3879   -3.1251   -1.7740 H         1 <0>         0.0586
     28 H10         0.0579   -2.9390    0.1890 H         1 <0>         0.0597
     29 H11         1.7677   -3.1699    0.6264 H         1 <0>         0.0592
     30 H12         2.3345   -1.0082   -0.4480 H         1 <0>         0.0743
     31 H13         1.1118   -0.7870    0.8266 H         1 <0>         0.0653
     32 H14        -1.2156   -1.3894    0.0177 H         1 <0>         0.3844
     33 H15        -3.7008   -0.7772    0.8765 H         1 <0>         0.0455
     34 H16        -4.5270   -2.0187   -0.0951 H         1 <0>         0.0699
     35 H17        -2.7796   -2.1500    0.2171 H         1 <0>         0.0518
     36 H18        -4.3440   -1.8633   -3.3763 H         1 <0>         0.0309
     37 H19        -5.1352   -0.4115   -4.0355 H         1 <0>         0.0606
     38 H20        -3.3644   -0.4586   -3.8614 H         1 <0>         0.0714
     39 H21        -5.8503   -0.2357   -0.3864 H         1 <0>         0.0512
     40 H22        -6.5869   -0.2813   -2.0062 H         1 <0>         0.0700
     41 H23        -5.7957   -1.7332   -1.3471 H         1 <0>         0.0458
@<TRIPOS>BOND
     1    1    2 1
     2    1   19 1
     3    1   20 1
     4    1   21 1
     5    2    7 1
     6    2    3 1
     7    2    8 1
     8    3    4 1
     9    3   22 1
    10    3   23 1
    11    4    5 1
    12    4   24 1
    13    4   25 1
    14    5    6 1
    15    5   26 1
    16    5   27 1
    17    6    7 1
    18    6   28 1
    19    6   29 1
    20    7   30 1
    21    7   31 1
    22    8    9 am
    23    8   32 1
    24    9   10 2
    25    9   11 am
    26   11   12 1
    27   11   13 1
    28   12   33 1
    29   12   34 1
    30   12   35 1
    31   13   14 1
    32   13   15 1
    33   13   16 1
    34   14   36 1
    35   14   37 1
    36   14   38 1
    37   15   39 1
    38   15   40 1
    39   15   41 1
    40   16   17 2
    41   16   18 1
@<TRIPOS>MOLECULE
ZINC01084645
   32    35     0     0     0
SMALL
USER_CHARGES
5-[5-[(4-oxo-2-thioxo-thiazolidin-5-ylidene)methyl]-2-furyl]isoindoline-1,3-dione
@<TRIPOS>ATOM
      1 C1          1.1037   -0.6347   -1.1247 C.ar      1 <0>        -0.0688
      2 C2          2.2611    0.0730   -1.3839 C.ar      1 <0>        -0.0379
      3 C3          2.2261    1.4600   -1.4459 C.ar      1 <0>        -0.1320
      4 C4          1.0082    2.1469   -1.2439 C.ar      1 <0>        -0.1383
      5 C5         -0.1488    1.4387   -0.9847 C.ar      1 <0>        -0.0190
      6 C6         -0.1047    0.0383   -0.9239 C.ar      1 <0>        -0.0012
      7 C7         -1.3345   -0.7249   -0.6483 C.2       1 <0>         0.0587
      8 C8         -1.4278   -2.0968   -0.5623 C.2       1 <0>        -0.1912
      9 C9         -2.7636   -2.3985   -0.2891 C.2       1 <0>        -0.1213
     10 C10        -3.4400   -1.1931   -0.2180 C.2       1 <0>        -0.0339
     11 O1         -2.5545   -0.1986   -0.4325 O.3       1 <0>        -0.1054
     12 C11        -4.8190   -1.0320    0.0406 C.2       1 <0>         0.1153
     13 C12        -5.3498    0.2196    0.1552 C.2       1 <0>        -0.2536
     14 C13        -4.6724    1.5285    0.1837 C.2       1 <0>         0.5322
     15 O2         -3.4614    1.6232    0.0994 O.2       1 <0>        -0.4349
     16 N1         -5.4454    2.5950    0.3016 N.am      1 <0>        -0.6284
     17 C14        -6.7859    2.4853    0.4015 C.2       1 <0>         0.2780
     18 S1         -7.9459    3.7337    0.5659 S.2       1 <0>        -0.3205
     19 S2         -7.0573    0.7224    0.3200 S.3       1 <0>         0.0916
     20 C15         1.3290    3.5840   -1.3764 C.2       1 <0>         0.5784
     21 O3          0.5390    4.5001   -1.2681 O.2       1 <0>        -0.4543
     22 N2          2.6431    3.7063   -1.6366 N.am      1 <0>        -0.6784
     23 C16         3.2404    2.5026   -1.6932 C.2       1 <0>         0.5777
     24 O4          4.4194    2.3064   -1.9117 O.2       1 <0>        -0.4565
     25 H1          1.1325   -1.7132   -1.0772 H         1 <0>         0.1521
     26 H2          3.1923   -0.4517   -1.5388 H         1 <0>         0.1539
     27 H3         -1.0827    1.9599   -0.8341 H         1 <0>         0.1543
     28 H4         -0.6211   -2.8046   -0.6838 H         1 <0>         0.1651
     29 H5         -3.1875   -3.3832   -0.1587 H         1 <0>         0.1690
     30 H6         -5.4533   -1.8995    0.1477 H         1 <0>         0.1849
     31 H7         -5.0388    3.4754    0.3212 H         1 <0>         0.4313
     32 H8          3.1000    4.5520   -1.7668 H         1 <0>         0.4330
@<TRIPOS>BOND
     1    1    6 ar
     2    1    2 ar
     3    1   25 1
     4    2    3 ar
     5    2   26 1
     6    3   23 1
     7    3    4 ar
     8    4    5 ar
     9    4   20 1
    10    5    6 ar
    11    5   27 1
    12    6    7 1
    13    7   11 1
    14    7    8 2
    15    8    9 1
    16    8   28 1
    17    9   10 2
    18    9   29 1
    19   10   11 1
    20   10   12 1
    21   12   13 2
    22   12   30 1
    23   13   19 1
    24   13   14 1
    25   14   15 2
    26   14   16 am
    27   16   17 1
    28   16   31 1
    29   17   18 2
    30   17   19 1
    31   20   21 2
    32   20   22 am
    33   22   23 am
    34   22   32 1
    35   23   24 2
@<TRIPOS>MOLECULE
ZINC00406832
   38    41     0     0     0
SMALL
USER_CHARGES

@<TRIPOS>ATOM
      1 C1         -0.0184    1.5028    0.0103 C.3       1 <0>        -0.0791
      2 C2          0.0021   -0.0041    0.0020 C.2       1 <0>         0.1282
      3 C3          0.0080   -0.8115   -1.1277 C.2       1 <0>        -0.2647
      4 C4          0.0273   -2.1154   -0.7172 C.2       1 <0>         0.2838
      5 N1          0.0346   -2.1158    0.6337 N.pl3     1 <0>        -0.2988
      6 N2          0.0231   -0.7786    1.0610 N.2       1 <0>        -0.2602
      7 C5          0.0551   -3.2477    1.4600 C.ar      1 <0>         0.1406
      8 C6         -0.6150   -4.4015    1.0761 C.ar      1 <0>        -0.1214
      9 C7         -0.5925   -5.5155    1.8924 C.ar      1 <0>        -0.0979
     10 C8          0.0961   -5.4823    3.0910 C.ar      1 <0>        -0.1148
     11 C9          0.7642   -4.3345    3.4763 C.ar      1 <0>        -0.1002
     12 C10         0.7505   -3.2194    2.6615 C.ar      1 <0>        -0.1021
     13 O1          0.0346   -3.1571   -1.5851 O.3       1 <0>        -0.2241
     14 C11        -0.2537   -2.8957   -2.8764 C.2       1 <0>         0.4486
     15 C12        -0.2898   -1.6511   -3.4019 C.2       1 <0>        -0.2679
     16 C13        -0.0037   -0.4178   -2.5823 C.3       1 <0>         0.1670
     17 H1         -0.7797    0.3279   -2.7552 H         1 <0>         0.1208
     18 C14         1.3396    0.1465   -2.9671 C.2       1 <0>        -0.0008
     19 C15         1.5668    1.3867   -3.4357 C.2       1 <0>        -0.2034
     20 C16         2.9582    1.4896   -3.6646 C.2       1 <0>        -0.2116
     21 C17         3.4980    0.3060   -3.3221 C.2       1 <0>        -0.0434
     22 O2          2.5136   -0.5016   -2.8949 O.3       1 <0>        -0.1681
     23 C18        -0.6122   -1.4976   -4.7887 C.1       1 <0>         0.2705
     24 N3         -0.8680   -1.3758   -5.8888 N.1       1 <0>        -0.4338
     25 N4         -0.5258   -3.9556   -3.7053 N.pl3     1 <0>        -0.8276
     26 H2          1.0042    1.8801    0.0026 H         1 <0>         0.0870
     27 H3         -0.5455    1.8639   -0.8728 H         1 <0>         0.0855
     28 H4         -0.5286    1.8543    0.9071 H         1 <0>         0.0817
     29 H5         -1.1536   -4.4278    0.1404 H         1 <0>         0.1289
     30 H6         -1.1136   -6.4133    1.5943 H         1 <0>         0.1351
     31 H7          0.1120   -6.3545    3.7277 H         1 <0>         0.1324
     32 H8          1.3009   -4.3115    4.4132 H         1 <0>         0.1359
     33 H9          1.2761   -2.3247    2.9608 H         1 <0>         0.1371
     34 H10         0.8281    2.1561   -3.6052 H         1 <0>         0.1484
     35 H11         3.4863    2.3526   -4.0422 H         1 <0>         0.1475
     36 H12         4.5458    0.0500   -3.3775 H         1 <0>         0.1999
     37 H13        -0.5073   -4.8607   -3.3572 H         1 <0>         0.4124
     38 H14        -0.7366   -3.7993   -4.6391 H         1 <0>         0.4290
@<TRIPOS>BOND
     1    1    2 1
     2    1   26 1
     3    1   27 1
     4    1   28 1
     5    2    6 2
     6    2    3 1
     7    3   16 1
     8    3    4 2
     9    4    5 1
    10    4   13 1
    11    5    6 1
    12    5    7 1
    13    7   12 ar
    14    7    8 ar
    15    8    9 ar
    16    8   29 1
    17    9   10 ar
    18    9   30 1
    19   10   11 ar
    20   10   31 1
    21   11   12 ar
    22   11   32 1
    23   12   33 1
    24   13   14 1
    25   14   15 2
    26   14   25 1
    27   15   16 1
    28   15   23 1
    29   16   17 1
    30   16   18 1
    31   18   22 1
    32   18   19 2
    33   19   20 1
    34   19   34 1
    35   20   21 2
    36   20   35 1
    37   21   22 1
    38   21   36 1
    39   23   24 3
    40   25   37 1
    41   25   38 1
@<TRIPOS>MOLECULE
ZINC09117643
   41    44     0     0     0
SMALL
USER_CHARGES

@<TRIPOS>ATOM
      1 C1         -2.0093    0.7305    0.3222 C.3       1 <0>        -0.1483
      2 C2         -1.5285   -0.7180    0.2142 C.3       1 <0>        -0.0866
      3 H1         -2.3867   -1.3808    0.1027 H         1 <0>         0.0779
      4 C3         -0.6054   -0.8640   -0.9991 C.3       1 <0>        -0.1151
      5 C4         -0.3212   -2.3434   -1.2590 C.3       1 <0>        -0.0721
      6 C5          0.1873   -2.9835    0.0302 C.2       1 <0>        -0.0844
      7 C6         -0.0269   -2.3864    1.2246 C.2       1 <0>        -0.1467
      8 S1          0.7214   -3.4596    2.4248 S.3       1 <0>         0.1269
      9 C7          1.3207   -4.7044    1.3287 C.ar      1 <0>         0.1311
     10 C8          0.9151   -4.2415    0.0511 C.ar      1 <0>        -0.2363
     11 C9          1.2623   -5.0529   -1.0670 C.ar      1 <0>         0.4967
     12 N1          1.9359   -6.1674   -0.7880 N.ar      1 <0>        -0.5766
     13 C10         2.2798   -6.5345    0.4300 C.ar      1 <0>         0.3840
     14 N2          1.9883   -5.8255    1.5142 N.ar      1 <0>        -0.4755
     15 C11         3.0418   -7.8234    0.6010 C.3       1 <0>        -0.0350
     16 S2          4.8225   -7.4897    0.5096 S.3       1 <0>         0.0316
     17 C12         5.5645   -9.0734    0.7244 C.2       1 <0>         0.1542
     18 N3          4.9360  -10.2125    0.9006 N.2       1 <0>        -0.2920
     19 N4          5.7881  -11.1669    1.0224 N.2       1 <0>        -0.2858
     20 C13         7.0006  -10.6984    0.9320 C.2       1 <0>         0.1631
     21 N5          6.9018   -9.3490    0.7330 N.pl3     1 <0>        -0.4668
     22 C14         8.0023   -8.3963    0.5670 C.3       1 <0>         0.0711
     23 N6          0.9207   -4.7053   -2.3615 N.pl3     1 <0>        -0.8254
     24 C15        -0.7461   -1.0967    1.4796 C.3       1 <0>        -0.0370
     25 H2         -1.1496    1.3913    0.4335 H         1 <0>         0.0581
     26 H3         -2.5594    0.9989   -0.5797 H         1 <0>         0.0600
     27 H4         -2.6613    0.8333    1.1896 H         1 <0>         0.0593
     28 H5         -1.0864   -0.4282   -1.8748 H         1 <0>         0.0749
     29 H6          0.3325   -0.3435   -0.8055 H         1 <0>         0.0698
     30 H7         -1.2376   -2.8408   -1.5767 H         1 <0>         0.0819
     31 H8          0.4362   -2.4383   -2.0371 H         1 <0>         0.0796
     32 H9          2.8033   -8.2606    1.5705 H         1 <0>         0.1274
     33 H10         2.7614   -8.5189   -0.1901 H         1 <0>         0.1267
     34 H11         7.9143  -11.2704    0.9974 H         1 <0>         0.2254
     35 H12         8.2994   -8.0110    1.5424 H         1 <0>         0.0878
     36 H13         8.8502   -8.8983    0.1010 H         1 <0>         0.0984
     37 H14         7.6761   -7.5710   -0.0658 H         1 <0>         0.0928
     38 H15         1.3625   -5.1336   -3.1114 H         1 <0>         0.4124
     39 H16         0.2393   -4.0332   -2.5195 H         1 <0>         0.4165
     40 H17        -0.0220   -0.3153    1.7100 H         1 <0>         0.0888
     41 H18        -1.4364   -1.2180    2.3144 H         1 <0>         0.0870
@<TRIPOS>BOND
     1    1    2 1
     2    1   25 1
     3    1   26 1
     4    1   27 1
     5    2    3 1
     6    2   24 1
     7    2    4 1
     8    4    5 1
     9    4   28 1
    10    4   29 1
    11    5    6 1
    12    5   30 1
    13    5   31 1
    14    6   10 1
    15    6    7 2
    16    7    8 1
    17    7   24 1
    18    8    9 1
    19    9   14 ar
    20    9   10 ar
    21   10   11 ar
    22   11   12 ar
    23   11   23 1
    24   12   13 ar
    25   13   14 ar
    26   13   15 1
    27   15   16 1
    28   15   32 1
    29   15   33 1
    30   16   17 1
    31   17   21 1
    32   17   18 2
    33   18   19 1
    34   19   20 2
    35   20   21 1
    36   20   34 1
    37   21   22 1
    38   22   35 1
    39   22   36 1
    40   22   37 1
    41   23   38 1
    42   23   39 1
    43   24   40 1
    44   24   41 1
@<TRIPOS>MOLECULE
ZINC58844312
   46    48     0     0     0
SMALL
USER_CHARGES

@<TRIPOS>ATOM
      1 C1          0.2058    1.2287    0.2423 C.ar      1 <0>        -0.0644
      2 C2          1.4589    1.7915    0.3815 C.ar      1 <0>        -0.1814
      3 C3          2.5837    0.9783    0.4302 C.ar      1 <0>         0.2110
      4 C4          2.4478   -0.4008    0.3389 C.ar      1 <0>        -0.1827
      5 C5          1.1945   -0.9632    0.1997 C.ar      1 <0>        -0.0922
      6 C6          0.0701   -0.1501    0.1510 C.ar      1 <0>         0.0978
      7 N1         -1.2023   -0.7213    0.0102 N.am      1 <0>        -0.6807
      8 C7         -2.1528   -0.0828   -0.7007 C.2       1 <0>         0.7037
      9 O1         -1.8790    0.9376   -1.3027 O.2       1 <0>        -0.5703
     10 N2         -3.4066   -0.5752   -0.7443 N.am      1 <0>        -0.7340
     11 C8         -4.4397    0.1190   -1.5170 C.3       1 <0>         0.1663
     12 H1         -4.2674    1.1941   -1.4675 H         1 <0>         0.1146
     13 C9         -4.3764   -0.3412   -2.9829 C.3       1 <0>        -0.1470
     14 C10        -5.6606    0.1596   -3.7037 C.3       1 <0>        -0.5691
     15 S1         -6.9239   -0.1575   -2.4005 S.o2      1 <0>         2.3784
     16 O2         -7.4836   -1.4478   -2.6034 O.2       1 <0>        -0.9301
     17 O3         -7.7831    0.9703   -2.3054 O.2       1 <0>        -0.9309
     18 C11        -5.8313   -0.2063   -0.9228 C.3       1 <0>        -0.5996
     19 N3          3.8537    1.5485    0.5708 N.pl3     1 <0>        -0.6289
     20 C12         5.0410    0.6994    0.7388 C.3       1 <0>         0.1202
     21 C13         6.0774    1.0859   -0.3211 C.3       1 <0>        -0.1378
     22 C14         6.3601    2.5871   -0.2288 C.3       1 <0>        -0.1193
     23 C15         5.0732    3.3681   -0.5044 C.3       1 <0>        -0.1379
     24 C16         4.0261    3.0074    0.5472 C.3       1 <0>         0.1204
     25 H2         -0.6693    1.8607    0.2089 H         1 <0>         0.1321
     26 H3          1.5644    2.8640    0.4521 H         1 <0>         0.1255
     27 H4          3.3224   -1.0333    0.3764 H         1 <0>         0.1267
     28 H5          1.0888   -2.0356    0.1286 H         1 <0>         0.1234
     29 H6         -1.3987   -1.5762    0.4244 H         1 <0>         0.4049
     30 H7         -3.6250   -1.3891   -0.2641 H         1 <0>         0.4022
     31 H8         -3.4951    0.0828   -3.4641 H         1 <0>         0.1086
     32 H9         -4.3309   -1.4294   -3.0255 H         1 <0>         0.0916
     33 H10        -5.5928    1.2222   -3.9367 H         1 <0>         0.1436
     34 H11        -5.8634   -0.4264   -4.6001 H         1 <0>         0.1455
     35 H12        -5.8363   -1.1981   -0.4708 H         1 <0>         0.1456
     36 H13        -6.1288    0.5515   -0.1980 H         1 <0>         0.1501
     37 H14         5.4610    0.8512    1.7331 H         1 <0>         0.0615
     38 H15         4.7627   -0.3469    0.6132 H         1 <0>         0.0827
     39 H16         6.9993    0.5308   -0.1478 H         1 <0>         0.0728
     40 H17         5.6902    0.8488   -1.3120 H         1 <0>         0.0664
     41 H18         6.7238    2.8275    0.7702 H         1 <0>         0.0632
     42 H19         7.1155    2.8603   -0.9656 H         1 <0>         0.0643
     43 H20         5.2803    4.4374   -0.4616 H         1 <0>         0.0736
     44 H21         4.6954    3.1096   -1.4936 H         1 <0>         0.0662
     45 H22         3.0784    3.4833    0.2954 H         1 <0>         0.0829
     46 H23         4.3615    3.3516    1.5255 H         1 <0>         0.0609
@<TRIPOS>BOND
     1    1    6 ar
     2    1    2 ar
     3    1   25 1
     4    2    3 ar
     5    2   26 1
     6    3    4 ar
     7    3   19 1
     8    4    5 ar
     9    4   27 1
    10    5    6 ar
    11    5   28 1
    12    6    7 1
    13    7    8 am
    14    7   29 1
    15    8    9 2
    16    8   10 am
    17   10   11 1
    18   10   30 1
    19   11   12 1
    20   11   18 1
    21   11   13 1
    22   13   14 1
    23   13   31 1
    24   13   32 1
    25   14   15 1
    26   14   33 1
    27   14   34 1
    28   15   16 2
    29   15   17 2
    30   15   18 1
    31   18   35 1
    32   18   36 1
    33   19   24 1
    34   19   20 1
    35   20   21 1
    36   20   37 1
    37   20   38 1
    38   21   22 1
    39   21   39 1
    40   21   40 1
    41   22   23 1
    42   22   41 1
    43   22   42 1
    44   23   24 1
    45   23   43 1
    46   23   44 1
    47   24   45 1
    48   24   46 1
@<TRIPOS>MOLECULE
ZINC63637604
   38    41     0     0     0
SMALL
USER_CHARGES

@<TRIPOS>ATOM
      1 C1         -0.0167    1.3777    0.0096 C.ar      1 <0>        -0.0985
      2 C2          1.1710    2.0855    0.0021 C.ar      1 <0>        -0.0735
      3 C3          2.3777    1.4116   -0.0130 C.ar      1 <0>        -0.0334
      4 C4          2.3977    0.0294   -0.0210 C.ar      1 <0>        -0.1080
      5 C5          1.2098   -0.6793   -0.0135 C.ar      1 <0>        -0.0286
      6 C6          0.0021   -0.0041    0.0020 C.ar      1 <0>        -0.1093
      7 Cl1         1.2341   -2.4151   -0.0242 Cl        1 <0>        -0.0747
      8 C7          3.6718    2.1839   -0.0212 C.3       1 <0>         0.0381
      9 H1          3.4545    3.2520   -0.0135 H         1 <0>         0.0994
     10 C8          4.4607    1.8367   -1.2855 C.3       1 <0>        -0.1284
     11 H2          4.4678    0.7558   -1.4256 H         1 <0>         0.1610
     12 C9          5.8743    2.3300   -1.0882 C.2       1 <0>         0.4845
     13 N1          6.4407    3.1604   -1.9075 N.2       1 <0>        -0.5657
     14 C10         5.8082    3.6632   -2.9772 C.2       1 <0>         0.6860
     15 O1          6.4069    4.4181   -3.7202 O.2       1 <0>        -0.4745
     16 N2          4.5305    3.3537   -3.2487 N.am      1 <0>        -0.6902
     17 C11         3.8338    2.4938   -2.4805 C.2       1 <0>         0.5271
     18 O2          2.6793    2.2458   -2.7552 O.2       1 <0>        -0.4576
     19 N3          6.5307    1.8641    0.0180 N.pl3     1 <0>        -0.6276
     20 C12         5.8133    1.7062    1.1831 C.2       1 <0>         0.2319
     21 C13         4.4745    1.8278    1.2086 C.2       1 <0>        -0.2810
     22 C14         3.7574    1.6272    2.4060 C.2       1 <0>         0.4001
     23 O3          2.5488    1.7506    2.4020 O.2       1 <0>        -0.4455
     24 C15         4.4546    1.2638    3.6870 C.3       1 <0>        -0.1687
     25 C16         5.7447    0.5065    3.3552 C.3       1 <0>        -0.1125
     26 C17         6.5903    1.3893    2.4392 C.3       1 <0>        -0.0983
     27 H3         -0.9592    1.9048    0.0259 H         1 <0>         0.1308
     28 H4          1.1559    3.1654    0.0076 H         1 <0>         0.1208
     29 H5          3.3407   -0.4970   -0.0336 H         1 <0>         0.1233
     30 H6         -0.9257   -0.5568    0.0079 H         1 <0>         0.1309
     31 H7          4.0980    3.7570   -4.0176 H         1 <0>         0.4273
     32 H8          7.4762    1.6504   -0.0174 H         1 <0>         0.4349
     33 H9          4.6964    2.1710    4.2408 H         1 <0>         0.1031
     34 H10         3.8040    0.6296    4.2892 H         1 <0>         0.1004
     35 H11         6.2948    0.2984    4.2730 H         1 <0>         0.0914
     36 H12         5.5020   -0.4293    2.8518 H         1 <0>         0.0789
     37 H13         7.5041    0.8565    2.1759 H         1 <0>         0.0967
     38 H14         6.8463    2.3168    2.9512 H         1 <0>         0.1092
@<TRIPOS>BOND
     1    1    6 ar
     2    1    2 ar
     3    1   27 1
     4    2    3 ar
     5    2   28 1
     6    3    4 ar
     7    3    8 1
     8    4    5 ar
     9    4   29 1
    10    5    6 ar
    11    5    7 1
    12    6   30 1
    13    8    9 1
    14    8   21 1
    15    8   10 1
    16   10   11 1
    17   10   17 1
    18   10   12 1
    19   12   13 2
    20   12   19 1
    21   13   14 1
    22   14   15 2
    23   14   16 am
    24   16   17 am
    25   16   31 1
    26   17   18 2
    27   19   20 1
    28   19   32 1
    29   20   26 1
    30   20   21 2
    31   21   22 1
    32   22   23 2
    33   22   24 1
    34   24   25 1
    35   24   33 1
    36   24   34 1
    37   25   26 1
    38   25   35 1
    39   25   36 1
    40   26   37 1
    41   26   38 1
@<TRIPOS>MOLECULE
ZINC04073807
   52    55     0     0     0
SMALL
USER_CHARGES
methyl-[3,4,5-trihydroxy-6-(hydroxymethyl)tetrahydropyran-2-yl]oxy-BLAHone
@<TRIPOS>ATOM
      1 C1          2.4838    4.3225    0.0009 C.3       1 <0>        -0.1015
      2 C2          1.1874    3.5541    0.0098 C.ar      1 <0>        -0.1280
      3 C3         -0.0222    4.2302    0.0252 C.ar      1 <0>         0.1751
      4 C4         -1.2257    3.5282    0.0329 C.ar      1 <0>        -0.1931
      5 C5         -1.2305    2.1630    0.0312 C.ar      1 <0>        -0.0261
      6 C6         -0.0178    1.4647    0.0101 C.ar      1 <0>        -0.1750
      7 C7          1.1996    2.1679    0.0022 C.ar      1 <0>         0.1740
      8 O1          2.3643    1.4857   -0.0120 O.3       1 <0>        -0.2644
      9 C8          2.3869    0.1463   -0.0209 C.2       1 <0>         0.5124
     10 O2          3.4626   -0.4247   -0.0313 O.2       1 <0>        -0.4597
     11 C9          1.1998   -0.6277   -0.0181 C.2       1 <0>        -0.2148
     12 C10         0.0021   -0.0041    0.0020 C.2       1 <0>         0.0353
     13 C11        -1.3086   -0.7403    0.0232 C.3       1 <0>        -0.0926
     14 C12        -1.1181   -2.1927   -0.4110 C.3       1 <0>        -0.1217
     15 C13         0.0335   -2.7917    0.4057 C.3       1 <0>        -0.1218
     16 C14         1.3347   -2.1273   -0.0397 C.3       1 <0>        -0.0605
     17 O3         -0.0346    5.5876    0.0332 O.3       1 <0>        -0.2853
     18 C15        -1.3137    6.2246    0.0490 C.3       1 <0>         0.2238
     19 H1         -1.8940    5.8538    0.8939 H         1 <0>         0.0816
     20 C16        -1.1286    7.7385    0.1819 C.3       1 <0>         0.0609
     21 H2         -0.5140    8.1039   -0.6408 H         1 <0>         0.0892
     22 C17        -2.5003    8.4186    0.1375 C.3       1 <0>         0.0860
     23 H3         -3.0970    8.0920    0.9893 H         1 <0>         0.0797
     24 C18        -3.2080    8.0316   -1.1647 C.3       1 <0>         0.0894
     25 H4         -2.6360    8.4039   -2.0146 H         1 <0>         0.0821
     26 C19        -3.3128    6.5064   -1.2456 C.3       1 <0>         0.1085
     27 H5         -3.9195    6.1394   -0.4177 H         1 <0>         0.0846
     28 O4         -2.0051    5.9356   -1.1678 O.3       1 <0>        -0.3708
     29 C20        -3.9651    6.1094   -2.5714 C.3       1 <0>         0.0903
     30 O5         -4.1691    4.6953   -2.5973 O.3       1 <0>        -0.5666
     31 O6         -4.5181    8.6020   -1.1840 O.3       1 <0>        -0.5491
     32 O7         -2.3325    9.8369    0.1872 O.3       1 <0>        -0.5531
     33 O8         -0.4877    8.0339    1.4245 O.3       1 <0>        -0.5527
     34 H6          2.7860    4.5132   -1.0288 H         1 <0>         0.0741
     35 H7          2.3478    5.2705    0.5213 H         1 <0>         0.0736
     36 H8          3.2552    3.7393    0.5039 H         1 <0>         0.0744
     37 H9         -2.1612    4.0677    0.0445 H         1 <0>         0.1432
     38 H10        -2.1664    1.6241    0.0414 H         1 <0>         0.1438
     39 H11        -1.7168   -0.7181    1.0337 H         1 <0>         0.0942
     40 H12        -2.0065   -0.2510   -0.6562 H         1 <0>         0.0900
     41 H13        -2.0328   -2.7552   -0.2238 H         1 <0>         0.0766
     42 H14        -0.8746   -2.2299   -1.4728 H         1 <0>         0.0706
     43 H15        -0.1312   -2.6024    1.4665 H         1 <0>         0.0683
     44 H16         0.0895   -3.8658    0.2287 H         1 <0>         0.0763
     45 H17         2.1388   -2.4254    0.6331 H         1 <0>         0.0844
     46 H18         1.5751   -2.4512   -1.0523 H         1 <0>         0.0810
     47 H19        -4.9247    6.6168   -2.6705 H         1 <0>         0.0797
     48 H20        -3.3146    6.3979   -3.3971 H         1 <0>         0.0581
     49 H21        -4.5801    4.3720   -3.4107 H         1 <0>         0.3861
     50 H22        -4.5275    9.5675   -1.1307 H         1 <0>         0.3964
     51 H23        -1.8840   10.1522    0.9837 H         1 <0>         0.3967
     52 H24         0.3857    7.6304    1.5223 H         1 <0>         0.3962
@<TRIPOS>BOND
     1    1    2 1
     2    1   34 1
     3    1   35 1
     4    1   36 1
     5    2    7 ar
     6    2    3 ar
     7    3    4 ar
     8    3   17 1
     9    4    5 ar
    10    4   37 1
    11    5    6 ar
    12    5   38 1
    13    6   12 1
    14    6    7 ar
    15    7    8 1
    16    8    9 1
    17    9   10 2
    18    9   11 1
    19   11   16 1
    20   11   12 2
    21   12   13 1
    22   13   14 1
    23   13   39 1
    24   13   40 1
    25   14   15 1
    26   14   41 1
    27   14   42 1
    28   15   16 1
    29   15   43 1
    30   15   44 1
    31   16   45 1
    32   16   46 1
    33   17   18 1
    34   18   19 1
    35   18   28 1
    36   18   20 1
    37   20   21 1
    38   20   22 1
    39   20   33 1
    40   22   23 1
    41   22   24 1
    42   22   32 1
    43   24   25 1
    44   24   26 1
    45   24   31 1
    46   26   27 1
    47   26   28 1
    48   26   29 1
    49   29   30 1
    50   29   47 1
    51   29   48 1
    52   30   49 1
    53   31   50 1
    54   32   51 1
    55   33   52 1
@<TRIPOS>MOLECULE
ZINC03771935
   41    43     0     0     0
SMALL
USER_CHARGES
methyl 2-amino-5-carbamoyl-3-cyano-10-oxo-4-phenyl-7-thia-1-azabicyclo[4.4.0]deca-2,5,8-triene-8-carboxylate
@<TRIPOS>ATOM
      1 C1          0.1520    1.2502    0.6730 C.3       1 <0>         0.0357
      2 O1          0.1221   -0.1950    0.5360 O.3       1 <0>        -0.3390
      3 C2          0.7489   -0.7209   -0.5338 C.2       1 <0>         0.5233
      4 O2          1.3050    0.0073   -1.3301 O.2       1 <0>        -0.4755
      5 C3          0.7598   -2.1885   -0.7388 C.2       1 <0>        -0.1590
      6 C4          1.3897   -2.7211   -1.8143 C.2       1 <0>        -0.1101
      7 C5          1.4072   -4.1509   -2.0740 C.2       1 <0>         0.5490
      8 O3          2.3128   -4.6072   -2.7468 O.2       1 <0>        -0.4658
      9 N1          0.4731   -4.9897   -1.6079 N.am      1 <0>        -0.4828
     10 C6          0.4461   -6.3080   -2.0373 C.2       1 <0>         0.4670
     11 C7         -0.7203   -7.0076   -1.9904 C.2       1 <0>        -0.2189
     12 C8         -1.9840   -6.3464   -1.5051 C.3       1 <0>         0.0843
     13 H1         -2.6062   -7.0828   -0.9965 H         1 <0>         0.1040
     14 C9         -1.6406   -5.2336   -0.5468 C.2       1 <0>        -0.1456
     15 C10        -0.4455   -4.5900   -0.6600 C.2       1 <0>         0.0978
     16 S1         -0.0409   -3.2513    0.4200 S.3       1 <0>         0.2583
     17 C11        -2.5481   -4.8631    0.4576 C.2       1 <0>         0.5660
     18 O4         -2.2678   -3.9632    1.2308 O.2       1 <0>        -0.5122
     19 N2         -3.7297   -5.5022    0.5673 N.am      1 <0>        -0.8396
     20 C12        -2.7371   -5.7805   -2.6814 C.ar      1 <0>        -0.0804
     21 C13        -2.1482   -4.8193   -3.4815 C.ar      1 <0>        -0.1032
     22 C14        -2.8376   -4.3030   -4.5627 C.ar      1 <0>        -0.1150
     23 C15        -4.1190   -4.7419   -4.8390 C.ar      1 <0>        -0.1150
     24 C16        -4.7099   -5.6993   -4.0358 C.ar      1 <0>        -0.1132
     25 C17        -4.0190   -6.2184   -2.9568 C.ar      1 <0>        -0.1106
     26 C18        -0.7464   -8.3784   -2.4037 C.1       1 <0>         0.2716
     27 N3         -0.7671   -9.4658   -2.7316 N.1       1 <0>        -0.4299
     28 N4          1.5909   -6.9047   -2.5080 N.pl3     1 <0>        -0.8288
     29 H2          1.1862    1.5871    0.7446 H         1 <0>         0.0693
     30 H3         -0.3196    1.7074   -0.1968 H         1 <0>         0.0698
     31 H4         -0.3881    1.5410    1.5740 H         1 <0>         0.1118
     32 H5          1.8958   -2.0600   -2.5022 H         1 <0>         0.1854
     33 H6         -3.9528   -6.2182   -0.0479 H         1 <0>         0.4023
     34 H7         -4.3570   -5.2461    1.2614 H         1 <0>         0.4108
     35 H8         -1.1484   -4.4739   -3.2636 H         1 <0>         0.1068
     36 H9         -2.3761   -3.5547   -5.1901 H         1 <0>         0.1219
     37 H10        -4.6586   -4.3366   -5.6822 H         1 <0>         0.1235
     38 H11        -5.7111   -6.0419   -4.2514 H         1 <0>         0.1256
     39 H12        -4.4807   -6.9664   -2.3293 H         1 <0>         0.1243
     40 H13         2.4581   -6.5252   -2.2959 H         1 <0>         0.4184
     41 H14         1.5319   -7.7054   -3.0523 H         1 <0>         0.4176
@<TRIPOS>BOND
     1    1    2 1
     2    1   29 1
     3    1   30 1
     4    1   31 1
     5    2    3 1
     6    3    4 2
     7    3    5 1
     8    5   16 1
     9    5    6 2
    10    6    7 1
    11    6   32 1
    12    7    8 2
    13    7    9 am
    14    9   15 1
    15    9   10 1
    16   10   11 2
    17   10   28 1
    18   11   12 1
    19   11   26 1
    20   12   13 1
    21   12   14 1
    22   12   20 1
    23   14   15 2
    24   14   17 1
    25   15   16 1
    26   17   18 2
    27   17   19 am
    28   19   33 1
    29   19   34 1
    30   20   25 ar
    31   20   21 ar
    32   21   22 ar
    33   21   35 1
    34   22   23 ar
    35   22   36 1
    36   23   24 ar
    37   23   37 1
    38   24   25 ar
    39   24   38 1
    40   25   39 1
    41   26   27 3
    42   28   40 1
    43   28   41 1
@<TRIPOS>MOLECULE
ZINC20504107
   60    63     0     0     0
SMALL
USER_CHARGES
(3aR,4R,6R,7R,7aR)-6,7-dihydroxy-N-(2-morpholinoethyl)-3-(p-tolyl)-2-thioxo-3a,4,5,6,7,7a-hexahydro-1H-benzimidazole-4-carboxamide
@<TRIPOS>ATOM
      1 C1          1.6979    3.0111    7.1942 C.3       1 <0>        -0.1246
      2 C2          0.9567    3.2063    5.8967 C.ar      1 <0>        -0.0555
      3 C3          1.5405    3.9260    4.8703 C.ar      1 <0>        -0.1337
      4 C4          0.8639    4.1068    3.6799 C.ar      1 <0>         0.0176
      5 C5         -0.4040    3.5648    3.5143 C.ar      1 <0>         0.1222
      6 C6         -0.9898    2.8473    4.5491 C.ar      1 <0>        -0.1001
      7 C7         -0.3058    2.6657    5.7351 C.ar      1 <0>        -0.1241
      8 N1         -1.0920    3.7460    2.3098 N.pl3     1 <0>        -0.5050
      9 C8         -1.4297    2.6986    1.3462 C.3       1 <0>         0.1252
     10 H1         -2.2078    2.0277    1.7392 H         1 <0>         0.0816
     11 C9         -0.3899    1.6501    1.1710 C.3       1 <0>        -0.1004
     12 H2         -0.9519    0.7261    0.9699 H         1 <0>         0.1076
     13 C10         0.5418    1.8413   -0.0029 C.3       1 <0>        -0.0980
     14 C11        -0.2089    2.2214   -1.2621 C.3       1 <0>         0.1294
     15 H3          0.5106    2.4072   -2.0732 H         1 <0>         0.0727
     16 C12        -1.0622    3.4496   -1.0747 C.3       1 <0>         0.0779
     17 H4         -1.7008    3.5441   -1.9654 H         1 <0>         0.0625
     18 C13        -1.9678    3.4234    0.1339 C.3       1 <0>         0.0891
     19 H5         -2.8863    2.9290   -0.2154 H         1 <0>         0.1173
     20 N2         -2.1220    4.8161    0.6206 N.pl3     1 <0>        -0.6885
     21 C14        -1.5598    4.9133    1.8344 C.2       1 <0>         0.5835
     22 S1         -1.4489    6.3871    2.6986 S.2       1 <0>        -0.6190
     23 O1         -0.2001    4.5841   -0.9664 O.3       1 <0>        -0.5764
     24 O2         -1.0470    1.1303   -1.6482 O.3       1 <0>        -0.5891
     25 C15         0.4397    1.5967    2.4279 C.2       1 <0>         0.5094
     26 O3          1.3382    2.3938    2.5958 O.2       1 <0>        -0.5004
     27 N3          0.1831    0.6631    3.3655 N.am      1 <0>        -0.7267
     28 C16         1.0471    0.5509    4.5433 C.3       1 <0>         0.0855
     29 C17         0.4274   -0.4319    5.5387 C.3       1 <0>         0.0478
     30 N4          1.2937   -0.5443    6.7197 N.3       1 <0>        -0.5260
     31 C18         2.5779   -1.1707    6.3733 C.3       1 <0>         0.0123
     32 C19         3.4703   -1.2138    7.6165 C.3       1 <0>         0.0615
     33 O4          2.7903   -1.9148    8.6613 O.3       1 <0>        -0.3842
     34 C20         1.5360   -1.3315    9.0244 C.3       1 <0>         0.0613
     35 C21         0.6240   -1.2896    7.7954 C.3       1 <0>         0.0180
     36 H6          2.6771    3.5088    7.1355 H         1 <0>         0.0619
     37 H7          1.8433    1.9359    7.3752 H         1 <0>         0.0866
     38 H8          1.1143    3.4461    8.0189 H         1 <0>         0.0676
     39 H9          2.5263    4.3476    4.9998 H         1 <0>         0.1223
     40 H10         1.3205    4.6687    2.8785 H         1 <0>         0.1199
     41 H11        -1.9776    2.4287    4.4252 H         1 <0>         0.1134
     42 H12        -0.7591    2.1044    6.5388 H         1 <0>         0.1228
     43 H13         1.2599    2.6426    0.2257 H         1 <0>         0.0989
     44 H14         1.0862    0.9050   -0.1953 H         1 <0>         0.0823
     45 H15        -2.6345    5.5632   -0.0033 H         1 <0>         0.4738
     46 H16        -0.6271    5.5878   -0.8239 H         1 <0>         0.4080
     47 H17        -1.6775    1.2119   -2.5459 H         1 <0>         0.4105
     48 H18        -0.6751   -0.0146    3.2464 H         1 <0>         0.4140
     49 H19         2.0388    0.1863    4.2372 H         1 <0>         0.0553
     50 H20         1.1498    1.5378    5.0181 H         1 <0>         0.1235
     51 H21        -0.5643   -0.0674    5.8448 H         1 <0>         0.0826
     52 H22         0.3248   -1.4189    5.0640 H         1 <0>         0.0365
     53 H23         2.4007   -2.1941    6.0111 H         1 <0>         0.0437
     54 H24         3.0717   -0.5832    5.5853 H         1 <0>         0.0896
     55 H25         4.4099   -1.7325    7.3755 H         1 <0>         0.0994
     56 H26         3.6917   -0.1875    7.9447 H         1 <0>         0.0626
     57 H27         1.0647   -1.9368    9.8127 H         1 <0>         0.0997
     58 H28         1.7008   -0.3094    9.3961 H         1 <0>         0.0625
     59 H29        -0.3210   -0.7897    8.0545 H         1 <0>         0.0883
     60 H30         0.4153   -2.3150    7.4562 H         1 <0>         0.0437
@<TRIPOS>BOND
     1    1    2 1
     2    1   36 1
     3    1   37 1
     4    1   38 1
     5    2    7 ar
     6    2    3 ar
     7    3    4 ar
     8    3   39 1
     9    4    5 ar
    10    4   40 1
    11    5    6 ar
    12    5    8 1
    13    6    7 ar
    14    6   41 1
    15    7   42 1
    16    8   21 1
    17    8    9 1
    18    9   10 1
    19    9   18 1
    20    9   11 1
    21   11   12 1
    22   11   13 1
    23   11   25 1
    24   13   14 1
    25   13   43 1
    26   13   44 1
    27   14   15 1
    28   14   16 1
    29   14   24 1
    30   16   17 1
    31   16   18 1
    32   16   23 1
    33   18   19 1
    34   18   20 1
    35   20   21 1
    36   20   45 1
    37   21   22 2
    38   23   46 1
    39   24   47 1
    40   25   26 2
    41   25   27 am
    42   27   28 1
    43   27   48 1
    44   28   29 1
    45   28   49 1
    46   28   50 1
    47   29   30 1
    48   29   51 1
    49   29   52 1
    50   30   35 1
    51   30   31 1
    52   31   32 1
    53   31   53 1
    54   31   54 1
    55   32   33 1
    56   32   55 1
    57   32   56 1
    58   33   34 1
    59   34   35 1
    60   34   57 1
    61   34   58 1
    62   35   59 1
    63   35   60 1
@<TRIPOS>MOLECULE
ZINC49079480
   36    37     0     0     0
SMALL
USER_CHARGES

@<TRIPOS>ATOM
      1 C1          0.3525    1.4504    0.6889 C.3       1 <0>        -0.1728
      2 C2          0.4316   -0.0683    0.8566 C.3       1 <0>         0.1439
      3 H1         -0.5270   -0.5136    0.5907 H         1 <0>         0.0895
      4 C3          1.5242   -0.6262   -0.0578 C.3       1 <0>         0.1238
      5 N1          1.5202   -2.0894    0.0130 N.pl3     1 <0>        -0.3676
      6 C4          1.4154   -2.9346   -1.0339 C.2       1 <0>         0.0587
      7 C5          1.4517   -4.1976   -0.5495 C.2       1 <0>        -0.2658
      8 C6          1.5832   -4.1217    0.8409 C.2       1 <0>         0.0508
      9 N2          1.6304   -2.8585    1.1786 N.2       1 <0>        -0.3094
     10 N3          0.7497   -0.3899    2.2500 N.pl3     1 <0>        -1.1046
     11 S1         -0.4602   -0.8095    3.2999 S.o2      1 <0>         2.7009
     12 O1          0.1723   -1.2407    4.4971 O.2       1 <0>        -0.9518
     13 O2         -1.4043    0.2524    3.2769 O.2       1 <0>        -0.9526
     14 C7         -1.2717   -2.2195    2.6230 C.ar      1 <0>        -0.7889
     15 C8         -2.5154   -2.0951    2.0303 C.ar      1 <0>         0.0916
     16 C9         -3.1183   -3.2332    1.5098 C.ar      1 <0>        -0.2321
     17 C10        -2.4633   -4.4462    1.5986 C.ar      1 <0>         0.2428
     18 N4         -1.2774   -4.5343    2.1702 N.ar      1 <0>        -0.5274
     19 C11        -0.6678   -3.4714    2.6723 C.ar      1 <0>         0.5249
     20 N5          0.5850   -3.6092    3.2598 N.pl3     1 <0>        -0.5362
     21 N6          0.9966   -4.8307    3.7122 N.3       1 <0>        -0.5921
     22 Br1        -4.8182   -3.1232    0.6887 Br        1 <0>        -0.0304
     23 H2          1.3112    1.8957    0.9548 H         1 <0>         0.0694
     24 H3          0.1159    1.6896   -0.3478 H         1 <0>         0.0740
     25 H4         -0.4258    1.8478    1.3403 H         1 <0>         0.0815
     26 H5          1.3349   -0.3115   -1.0840 H         1 <0>         0.1132
     27 H6          2.4950   -0.2495    0.2645 H         1 <0>         0.0964
     28 H7          1.3194   -2.6533   -2.0722 H         1 <0>         0.1743
     29 H8          1.3896   -5.1040   -1.1334 H         1 <0>         0.1468
     30 H9          1.6408   -4.9609    1.5183 H         1 <0>         0.1703
     31 H10         1.6691   -0.3570    2.5576 H         1 <0>         0.4207
     32 H11        -3.0068   -1.1350    1.9738 H         1 <0>         0.1586
     33 H12        -2.9280   -5.3338    1.1954 H         1 <0>         0.1716
     34 H13         1.1667   -2.8380    3.3483 H         1 <0>         0.4207
     35 H14         0.9609   -5.5197    2.9760 H         1 <0>         0.3444
     36 H15         1.9217   -4.7755    4.1113 H         1 <0>         0.3630
@<TRIPOS>BOND
     1    1    2 1
     2    1   23 1
     3    1   24 1
     4    1   25 1
     5    2    3 1
     6    2    4 1
     7    2   10 1
     8    4    5 1
     9    4   26 1
    10    4   27 1
    11    5    9 1
    12    5    6 1
    13    6    7 2
    14    6   28 1
    15    7    8 1
    16    7   29 1
    17    8    9 2
    18    8   30 1
    19   10   11 1
    20   10   31 1
    21   11   12 2
    22   11   13 2
    23   11   14 1
    24   14   19 ar
    25   14   15 ar
    26   15   16 ar
    27   15   32 1
    28   16   17 ar
    29   16   22 1
    30   17   18 ar
    31   17   33 1
    32   18   19 ar
    33   19   20 1
    34   20   21 1
    35   20   34 1
    36   21   35 1
    37   21   36 1
@<TRIPOS>MOLECULE
ZINC47167053
   49    52     0     0     0
SMALL
USER_CHARGES

@<TRIPOS>ATOM
      1 C1         -1.1938    1.9442    1.1314 C.3       1 <0>        -0.1454
      2 C2         -0.5790    0.6108    0.7014 C.3       1 <0>         0.1680
      3 C3          0.4406    0.8241   -0.3998 C.2       1 <0>         0.5380
      4 O1          0.2418    1.2885   -1.5019 O.2       1 <0>        -0.4552
      5 N1          1.6143    0.3910    0.1014 N.am      1 <0>        -0.6785
      6 C4          1.4793   -0.0616    1.3532 C.2       1 <0>         0.7070
      7 O2          2.3981   -0.5043    2.0143 O.2       1 <0>        -0.5368
      8 N2          0.2129    0.0275    1.7981 N.am      1 <0>        -0.7158
      9 C5         -1.6533   -0.3473    0.2553 C.ar      1 <0>        -0.0826
     10 C6         -1.8108   -1.5590    0.9033 C.ar      1 <0>        -0.1147
     11 C7         -2.7952   -2.4408    0.4972 C.ar      1 <0>        -0.0958
     12 C8         -3.6249   -2.1140   -0.5577 C.ar      1 <0>        -0.1086
     13 C9         -3.4697   -0.8980   -1.2102 C.ar      1 <0>         0.1533
     14 C10        -2.4831   -0.0121   -0.7963 C.ar      1 <0>        -0.1205
     15 N3         -4.3077   -0.5642   -2.2789 N.am      1 <0>        -0.6707
     16 C11        -5.5864   -0.9902   -2.2911 C.2       1 <0>         0.5652
     17 O3         -6.0384   -1.5845   -1.3314 O.2       1 <0>        -0.5153
     18 C12        -6.4377   -0.7354   -3.4692 C.ar      1 <0>        -0.1589
     19 C13        -5.9180   -0.0575   -4.5754 C.ar      1 <0>        -0.0611
     20 C14        -6.7150    0.1787   -5.6728 C.ar      1 <0>        -0.1304
     21 C15        -8.0366   -0.2563   -5.6813 C.ar      1 <0>         0.1809
     22 C16        -8.5573   -0.9311   -4.5815 C.ar      1 <0>        -0.1546
     23 C17        -7.7638   -1.1764   -3.4836 C.ar      1 <0>        -0.0313
     24 N4         -8.8412   -0.0151   -6.7943 N.am      1 <0>        -0.6712
     25 C18        -8.6723    1.1100   -7.5168 C.2       1 <0>         0.5448
     26 O4         -7.8857    1.9558   -7.1470 O.2       1 <0>        -0.5126
     27 C19        -9.4608    1.3171   -8.7843 C.3       1 <0>        -0.2007
     28 C20        -8.6923    1.2885  -10.1070 C.3       1 <0>        -0.1487
     29 C21        -9.2239    2.6146   -9.5596 C.3       1 <0>        -0.1440
     30 H1         -0.4002    2.6358    1.4143 H         1 <0>         0.0735
     31 H2         -1.7645    2.3649    0.3035 H         1 <0>         0.0869
     32 H3         -1.8547    1.7817    1.9828 H         1 <0>         0.0850
     33 H4          2.4531    0.4052   -0.3854 H         1 <0>         0.4351
     34 H5         -0.1149   -0.2399    2.6710 H         1 <0>         0.4431
     35 H6         -1.1631   -1.8170    1.7282 H         1 <0>         0.1275
     36 H7         -2.9154   -3.3863    1.0051 H         1 <0>         0.1326
     37 H8         -4.3932   -2.8036   -0.8749 H         1 <0>         0.1395
     38 H9         -2.3625    0.9362   -1.2990 H         1 <0>         0.1359
     39 H10        -3.9688   -0.0262   -3.0113 H         1 <0>         0.4125
     40 H11        -4.8925    0.2811   -4.5692 H         1 <0>         0.1302
     41 H12        -6.3141    0.7025   -6.5279 H         1 <0>         0.1420
     42 H13        -9.5836   -1.2671   -4.5912 H         1 <0>         0.1365
     43 H14        -8.1671   -1.7048   -2.6323 H         1 <0>         0.1433
     44 H15        -9.5226   -0.6570   -7.0485 H         1 <0>         0.4162
     45 H16       -10.4721    0.9104   -8.7805 H         1 <0>         0.1288
     46 H17        -7.6164    1.1200  -10.0604 H         1 <0>         0.1011
     47 H18        -9.1979    0.8629  -10.9737 H         1 <0>         0.1089
     48 H19       -10.0794    3.0615  -10.0662 H         1 <0>         0.1074
     49 H20        -8.4978    3.3186   -9.1529 H         1 <0>         0.1101
@<TRIPOS>BOND
     1    1    2 1
     2    1   30 1
     3    1   31 1
     4    1   32 1
     5    2    8 1
     6    2    3 1
     7    2    9 1
     8    3    4 2
     9    3    5 am
    10    5    6 am
    11    5   33 1
    12    6    7 2
    13    6    8 am
    14    8   34 1
    15    9   14 ar
    16    9   10 ar
    17   10   11 ar
    18   10   35 1
    19   11   12 ar
    20   11   36 1
    21   12   13 ar
    22   12   37 1
    23   13   14 ar
    24   13   15 1
    25   14   38 1
    26   15   16 am
    27   15   39 1
    28   16   17 2
    29   16   18 1
    30   18   23 ar
    31   18   19 ar
    32   19   20 ar
    33   19   40 1
    34   20   21 ar
    35   20   41 1
    36   21   22 ar
    37   21   24 1
    38   22   23 ar
    39   22   42 1
    40   23   43 1
    41   24   25 am
    42   24   44 1
    43   25   26 2
    44   25   27 1
    45   27   29 1
    46   27   28 1
    47   27   45 1
    48   28   29 1
    49   28   46 1
    50   28   47 1
    51   29   48 1
    52   29   49 1
@<TRIPOS>MOLECULE
ZINC67550289
   49    51     0     0     0
SMALL
USER_CHARGES

@<TRIPOS>ATOM
      1 C1          0.3863    1.4488   -0.0585 C.3       1 <0>        -0.1644
      2 C2          0.2629   -0.0761   -0.0766 C.3       1 <0>         0.1446
      3 H1         -0.7898   -0.3559   -0.0349 H         1 <0>         0.1166
      4 C3          0.8759   -0.6148   -1.3435 C.2       1 <0>         0.5154
      5 O1          2.0110   -1.0419   -1.3340 O.2       1 <0>        -0.5271
      6 N1          0.1628   -0.6219   -2.4872 N.am      1 <0>        -0.6118
      7 C4         -1.1594    0.0053   -2.5186 C.3       1 <0>         0.0968
      8 C5         -1.1258    1.2217   -3.4508 C.3       1 <0>        -0.1060
      9 S1         -0.5829    0.6770   -5.0982 S.3       1 <0>        -0.2476
     10 C6          0.9777   -0.1900   -4.7537 C.3       1 <0>        -0.1014
     11 C7          0.7225   -1.2513   -3.6843 C.3       1 <0>         0.1087
     12 N2          0.9634   -0.6366    1.0815 N.am      1 <0>        -0.7255
     13 C8          0.3343   -0.7289    2.2699 C.2       1 <0>         0.7116
     14 O2         -0.8147   -0.3470    2.3807 O.2       1 <0>        -0.5713
     15 N3          0.9788   -1.2445    3.3353 N.am      1 <0>        -0.6830
     16 C9          0.3626   -1.2464    4.5930 C.ar      1 <0>         0.1648
     17 C10         1.1211   -1.0424    5.7383 C.ar      1 <0>        -0.1206
     18 C11         0.5136   -1.0438    6.9778 C.ar      1 <0>        -0.0829
     19 C12        -0.8559   -1.2491    7.0795 C.ar      1 <0>         0.1364
     20 C13        -1.6144   -1.4535    5.9345 C.ar      1 <0>        -0.1254
     21 C14        -1.0079   -1.4465    4.6945 C.ar      1 <0>        -0.0917
     22 N4         -1.4731   -1.2505    8.3389 N.pl3     1 <0>        -0.3394
     23 C15        -2.7144   -0.7892    8.6115 C.2       1 <0>         0.4329
     24 C16        -2.9314   -0.9790    9.9737 C.2       1 <0>        -0.2605
     25 C17        -1.7616   -1.5748   10.5000 C.2       1 <0>         0.1387
     26 N5         -0.9108   -1.7350    9.5249 N.2       1 <0>        -0.2900
     27 C18        -4.1146   -0.6355   10.7036 C.1       1 <0>         0.2949
     28 N6         -5.0532   -0.3630   11.2826 N.1       1 <0>        -0.4418
     29 N7         -3.6007   -0.2339    7.7083 N.pl3     1 <0>        -0.8344
     30 H2          1.4390    1.7275   -0.0100 H         1 <0>         0.0688
     31 H3         -0.0570    1.8600   -0.9654 H         1 <0>         0.0726
     32 H4         -0.1350    1.8452    0.8128 H         1 <0>         0.0817
     33 H5         -1.8935   -0.7127   -2.8844 H         1 <0>         0.0939
     34 H6         -1.4337    0.3253   -1.5134 H         1 <0>         0.1029
     35 H7         -2.1225    1.6574   -3.5197 H         1 <0>         0.1233
     36 H8         -0.4266    1.9617   -3.0614 H         1 <0>         0.0895
     37 H9          1.3402   -0.6665   -5.6645 H         1 <0>         0.1209
     38 H10         1.7190    0.5218   -4.3904 H         1 <0>         0.0882
     39 H11         1.6623   -1.7420   -3.4311 H         1 <0>         0.1076
     40 H12         0.0192   -1.9897   -4.0691 H         1 <0>         0.0889
     41 H13         1.8801   -0.9412    0.9931 H         1 <0>         0.4096
     42 H14         1.8695   -1.6143    3.2311 H         1 <0>         0.4123
     43 H15         2.1864   -0.8830    5.6592 H         1 <0>         0.1390
     44 H16         1.1036   -0.8855    7.8684 H         1 <0>         0.1435
     45 H17        -2.6794   -1.6139    6.0138 H         1 <0>         0.1335
     46 H18        -1.5985   -1.6011    3.8036 H         1 <0>         0.1528
     47 H19        -1.6020   -1.8529   11.5313 H         1 <0>         0.2013
     48 H20        -3.3509   -0.1461    6.7751 H         1 <0>         0.4106
     49 H21        -4.4726    0.0680    8.0074 H         1 <0>         0.4225
@<TRIPOS>BOND
     1    1    2 1
     2    1   30 1
     3    1   31 1
     4    1   32 1
     5    2    3 1
     6    2    4 1
     7    2   12 1
     8    4    5 2
     9    4    6 am
    10    6   11 1
    11    6    7 1
    12    7    8 1
    13    7   33 1
    14    7   34 1
    15    8    9 1
    16    8   35 1
    17    8   36 1
    18    9   10 1
    19   10   11 1
    20   10   37 1
    21   10   38 1
    22   11   39 1
    23   11   40 1
    24   12   13 am
    25   12   41 1
    26   13   14 2
    27   13   15 am
    28   15   16 1
    29   15   42 1
    30   16   21 ar
    31   16   17 ar
    32   17   18 ar
    33   17   43 1
    34   18   19 ar
    35   18   44 1
    36   19   20 ar
    37   19   22 1
    38   20   21 ar
    39   20   45 1
    40   21   46 1
    41   22   26 1
    42   22   23 1
    43   23   24 2
    44   23   29 1
    45   24   25 1
    46   24   27 1
    47   25   26 2
    48   25   47 1
    49   27   28 3
    50   29   48 1
    51   29   49 1
@<TRIPOS>MOLECULE
ZINC09223132
   57    61     0     0     0
SMALL
USER_CHARGES
N-(7,10-dioxabicyclo[4.4.0]deca-2,4,11-trien-8-ylmethyl)-2-(4-indan-5-yl-4-methyl-2,5-dioxo-imidazolidin-1-yl)-acetamide
@<TRIPOS>ATOM
      1 C1         -1.8412    0.9973    4.3339 C.3       1 <0>        -0.1445
      2 C2         -2.0841    1.7429    3.0201 C.3       1 <0>         0.1724
      3 C3         -1.6840    0.8834    1.8373 C.2       1 <0>         0.5428
      4 O1         -2.1528   -0.1884    1.5192 O.2       1 <0>        -0.4545
      5 N1         -0.6984    1.5583    1.2133 N.am      1 <0>        -0.5606
      6 C4         -0.4196    2.7103    1.8339 C.2       1 <0>         0.7122
      7 O2          0.4353    3.4892    1.4604 O.2       1 <0>        -0.5363
      8 N2         -1.1938    2.9119    2.9154 N.am      1 <0>        -0.7144
      9 C5         -0.0127    1.0858    0.0080 C.3       1 <0>         0.0996
     10 C6         -0.7416    1.5850   -1.2129 C.2       1 <0>         0.5032
     11 O3         -1.7359    2.2682   -1.0884 O.2       1 <0>        -0.5211
     12 N3         -0.2884    1.2723   -2.4431 N.am      1 <0>        -0.7221
     13 C7         -0.9970    1.7576   -3.6299 C.3       1 <0>         0.1328
     14 C8         -0.2809    1.2642   -4.8887 C.3       1 <0>         0.0394
     15 H1          0.7640    1.5735   -4.8622 H         1 <0>         0.0953
     16 C9         -0.9626    1.8471   -6.1340 C.3       1 <0>         0.0304
     17 O4         -0.2772    1.3556   -7.2912 O.3       1 <0>        -0.3025
     18 C10        -0.0005    0.0232   -7.3180 C.ar      1 <0>         0.0472
     19 C11         0.3262   -0.5800   -8.5235 C.ar      1 <0>        -0.1127
     20 C12         0.6157   -1.9307   -8.5658 C.ar      1 <0>        -0.1139
     21 C13         0.5808   -2.6841   -7.4071 C.ar      1 <0>        -0.1144
     22 C14         0.2549   -2.0895   -6.2029 C.ar      1 <0>        -0.1123
     23 C15        -0.0381   -0.7346   -6.1537 C.ar      1 <0>         0.0500
     24 O5         -0.3601   -0.1635   -4.9610 O.3       1 <0>        -0.3020
     25 C16        -3.5278    2.1601    2.9082 C.ar      1 <0>        -0.0967
     26 C17        -4.4357    1.3438    2.2594 C.ar      1 <0>        -0.1032
     27 C18        -5.7595    1.7254    2.1633 C.ar      1 <0>        -0.1013
     28 C19        -6.1790    2.9291    2.7048 C.ar      1 <0>        -0.0853
     29 C20        -5.2702    3.7478    3.3484 C.ar      1 <0>        -0.0967
     30 C21        -3.9442    3.3609    3.4486 C.ar      1 <0>        -0.0822
     31 C22        -5.9687    4.9944    3.8477 C.3       1 <0>        -0.0823
     32 C23        -7.2973    5.0542    3.0643 C.3       1 <0>        -0.1214
     33 C24        -7.5504    3.5694    2.7276 C.3       1 <0>        -0.0857
     34 H2         -0.7858    0.7371    4.4143 H         1 <0>         0.0735
     35 H3         -2.1229    1.6356    5.1713 H         1 <0>         0.0839
     36 H4         -2.4420    0.0880    4.3520 H         1 <0>         0.0879
     37 H5         -1.1681    3.6761    3.5123 H         1 <0>         0.4411
     38 H6          0.0021   -0.0041    0.0020 H         1 <0>         0.1297
     39 H7          1.0099    1.4631    0.0003 H         1 <0>         0.1317
     40 H8          0.5068    0.7259   -2.5426 H         1 <0>         0.4078
     41 H9         -2.0196    1.3803   -3.6222 H         1 <0>         0.0850
     42 H10        -1.0118    2.8475   -3.6239 H         1 <0>         0.0965
     43 H11        -2.0058    1.5326   -6.1631 H         1 <0>         0.0833
     44 H12        -0.9066    2.9353   -6.1083 H         1 <0>         0.1274
     45 H13         0.3546    0.0064   -9.4300 H         1 <0>         0.1356
     46 H14         0.8694   -2.3985   -9.5055 H         1 <0>         0.1338
     47 H15         0.8086   -3.7392   -7.4431 H         1 <0>         0.1337
     48 H16         0.2285   -2.6802   -5.2992 H         1 <0>         0.1351
     49 H17        -4.1108    0.4066    1.8323 H         1 <0>         0.1399
     50 H18        -6.4690    1.0851    1.6602 H         1 <0>         0.1252
     51 H19        -3.2335    4.0001    3.9514 H         1 <0>         0.1195
     52 H20        -6.1635    4.9162    4.9173 H         1 <0>         0.0821
     53 H21        -5.3648    5.8768    3.6360 H         1 <0>         0.0760
     54 H22        -7.1845    5.6440    2.1546 H         1 <0>         0.0730
     55 H23        -8.0993    5.4528    3.6856 H         1 <0>         0.0789
     56 H24        -8.0264    3.4787    1.7513 H         1 <0>         0.0770
     57 H25        -8.1706    3.1077    3.4960 H         1 <0>         0.0831
@<TRIPOS>BOND
     1    1    2 1
     2    1   34 1
     3    1   35 1
     4    1   36 1
     5    2    8 1
     6    2    3 1
     7    2   25 1
     8    3    4 2
     9    3    5 am
    10    5    6 am
    11    5    9 1
    12    6    7 2
    13    6    8 am
    14    8   37 1
    15    9   10 1
    16    9   38 1
    17    9   39 1
    18   10   11 2
    19   10   12 am
    20   12   13 1
    21   12   40 1
    22   13   14 1
    23   13   41 1
    24   13   42 1
    25   14   15 1
    26   14   24 1
    27   14   16 1
    28   16   17 1
    29   16   43 1
    30   16   44 1
    31   17   18 1
    32   18   23 ar
    33   18   19 ar
    34   19   20 ar
    35   19   45 1
    36   20   21 ar
    37   20   46 1
    38   21   22 ar
    39   21   47 1
    40   22   23 ar
    41   22   48 1
    42   23   24 1
    43   25   30 ar
    44   25   26 ar
    45   26   27 ar
    46   26   49 1
    47   27   28 ar
    48   27   50 1
    49   28   33 1
    50   28   29 ar
    51   29   30 ar
    52   29   31 1
    53   30   51 1
    54   31   32 1
    55   31   52 1
    56   31   53 1
    57   32   33 1
    58   32   54 1
    59   32   55 1
    60   33   56 1
    61   33   57 1
@<TRIPOS>MOLECULE
ZINC15560755
   56    59     0     0     0
SMALL
USER_CHARGES
(3S)-1-(2,3-dihydro-1,4-benzodioxin-6-yl)-N-[4-(2-methylpropanoylamino)phenyl]-5-oxo-pyrrolidine-3-carboxamide
@<TRIPOS>ATOM
      1 C1         -6.0406   11.3090   -3.7456 C.3       1 <0>        -0.1463
      2 C2         -5.5785   10.2338   -4.7311 C.3       1 <0>        -0.1129
      3 C3         -4.6154   10.8524   -5.7463 C.3       1 <0>        -0.1357
      4 C4         -4.8769    9.1319   -3.9798 C.2       1 <0>         0.5147
      5 O1         -3.7202    8.8673   -4.2315 O.2       1 <0>        -0.5139
      6 N1         -5.5346    8.4403   -3.0281 N.am      1 <0>        -0.6751
      7 C5         -4.8537    7.4905   -2.2559 C.ar      1 <0>         0.1364
      8 C6         -5.5140    6.3506   -1.8163 C.ar      1 <0>        -0.1282
      9 C7         -4.8429    5.4143   -1.0556 C.ar      1 <0>        -0.1196
     10 C8         -3.5075    5.6124   -0.7299 C.ar      1 <0>         0.1225
     11 C9         -2.8489    6.7551   -1.1647 C.ar      1 <0>        -0.0961
     12 C10        -3.5184    7.6886   -1.9302 C.ar      1 <0>        -0.1028
     13 N2         -2.8265    4.6624    0.0419 N.am      1 <0>        -0.6671
     14 C11        -1.5260    4.4042   -0.2003 C.2       1 <0>         0.5266
     15 O2         -0.9229    5.0533   -1.0286 O.2       1 <0>        -0.5068
     16 C12        -0.8212    3.3092    0.5582 C.3       1 <0>        -0.1226
     17 H1         -0.8961    3.4716    1.6334 H         1 <0>         0.1283
     18 C13        -1.3764    1.9198    0.1619 C.3       1 <0>        -0.1420
     19 C14        -0.1605    1.0197    0.1727 C.2       1 <0>         0.5189
     20 O3         -0.1937   -0.1926    0.1935 O.2       1 <0>        -0.4996
     21 N3          0.9620    1.7589    0.1501 N.am      1 <0>        -0.5551
     22 C15         0.6550    3.1937    0.1180 C.3       1 <0>         0.1106
     23 C16         2.2584    1.2278    0.1559 C.ar      1 <0>         0.1691
     24 C17         3.3538    2.0678    0.0069 C.ar      1 <0>        -0.1494
     25 C18         4.6322    1.5446    0.0120 C.ar      1 <0>        -0.0836
     26 C19         4.8260    0.1799    0.1669 C.ar      1 <0>         0.0272
     27 C20         3.7315   -0.6634    0.3180 C.ar      1 <0>         0.0805
     28 C21         2.4487   -0.1373    0.3162 C.ar      1 <0>        -0.1515
     29 O4          3.9019   -2.0047    0.4753 O.3       1 <0>        -0.3033
     30 C22         5.1766   -2.5396    0.1025 C.3       1 <0>         0.0198
     31 C23         6.2677   -1.6372    0.6944 C.3       1 <0>         0.0205
     32 O5          6.0938   -0.3180    0.1659 O.3       1 <0>        -0.3068
     33 H2         -6.5481   12.1060   -4.2890 H         1 <0>         0.0723
     34 H3         -6.7267   10.8683   -3.0224 H         1 <0>         0.0600
     35 H4         -5.1761   11.7188   -3.2233 H         1 <0>         0.0628
     36 H5         -6.4430    9.8240   -5.2535 H         1 <0>         0.1006
     37 H6         -4.2862   10.0863   -6.4484 H         1 <0>         0.0634
     38 H7         -5.1229   11.6494   -6.2897 H         1 <0>         0.0651
     39 H8         -3.7509   11.2621   -5.2239 H         1 <0>         0.0638
     40 H9         -6.4795    8.6003   -2.8780 H         1 <0>         0.4110
     41 H10        -6.5526    6.1967   -2.0693 H         1 <0>         0.1307
     42 H11        -5.3564    4.5280   -0.7135 H         1 <0>         0.1313
     43 H12        -1.8117    6.9114   -0.9073 H         1 <0>         0.1418
     44 H13        -3.0050    8.5752   -2.2717 H         1 <0>         0.1376
     45 H14        -3.2909    4.1902    0.7506 H         1 <0>         0.4134
     46 H15        -1.8178    1.9527   -0.8342 H         1 <0>         0.1163
     47 H16        -2.1091    1.5799    0.8939 H         1 <0>         0.1200
     48 H17         1.2990    3.7328    0.8127 H         1 <0>         0.0981
     49 H18         0.7790    3.5834   -0.8923 H         1 <0>         0.1046
     50 H19         3.2063    3.1309   -0.1134 H         1 <0>         0.1376
     51 H20         5.4828    2.1997   -0.1045 H         1 <0>         0.1416
     52 H21         1.5971   -0.7907    0.4360 H         1 <0>         0.1666
     53 H22         5.2640   -2.5580   -0.9838 H         1 <0>         0.0792
     54 H23         5.2810   -3.5501    0.4975 H         1 <0>         0.1241
     55 H24         7.2505   -2.0179    0.4164 H         1 <0>         0.1233
     56 H25         6.1766   -1.6131    1.7803 H         1 <0>         0.0780
@<TRIPOS>BOND
     1    1    2 1
     2    1   33 1
     3    1   34 1
     4    1   35 1
     5    2    3 1
     6    2    4 1
     7    2   36 1
     8    3   37 1
     9    3   38 1
    10    3   39 1
    11    4    5 2
    12    4    6 am
    13    6    7 1
    14    6   40 1
    15    7   12 ar
    16    7    8 ar
    17    8    9 ar
    18    8   41 1
    19    9   10 ar
    20    9   42 1
    21   10   11 ar
    22   10   13 1
    23   11   12 ar
    24   11   43 1
    25   12   44 1
    26   13   14 am
    27   13   45 1
    28   14   15 2
    29   14   16 1
    30   16   17 1
    31   16   22 1
    32   16   18 1
    33   18   19 1
    34   18   46 1
    35   18   47 1
    36   19   20 2
    37   19   21 am
    38   21   22 1
    39   21   23 1
    40   22   48 1
    41   22   49 1
    42   23   28 ar
    43   23   24 ar
    44   24   25 ar
    45   24   50 1
    46   25   26 ar
    47   25   51 1
    48   26   32 1
    49   26   27 ar
    50   27   28 ar
    51   27   29 1
    52   28   52 1
    53   29   30 1
    54   30   31 1
    55   30   53 1
    56   30   54 1
    57   31   32 1
    58   31   55 1
    59   31   56 1
@<TRIPOS>MOLECULE
ZINC32620418
   50    53     0     0     0
SMALL
USER_CHARGES
4-[(9-methyl-4-oxo-2-pyrrolidin-1-yl-pyrido[1,2-a]pyrimidin-3-yl)methyleneamino]benzenesulfonamide
@<TRIPOS>ATOM
      1 C1          2.7617   -8.9274   -2.1605 C.3       1 <0>        -0.0957
      2 C2          2.0117   -8.2222   -1.0600 C.2       1 <0>        -0.1081
      3 C3          1.2780   -8.9381   -0.1614 C.2       1 <0>        -0.0251
      4 C4          0.5857   -8.2675    0.8562 C.2       1 <0>        -0.1610
      5 C5          0.6472   -6.9199    0.9441 C.2       1 <0>         0.1020
      6 N1          1.3781   -6.1949    0.0506 N.am      1 <0>        -0.4276
      7 C6          2.0636   -6.8206   -0.9530 C.2       1 <0>         0.4218
      8 N2          2.7836   -6.1287   -1.8362 N.2       1 <0>        -0.5747
      9 C7          2.8669   -4.8069   -1.7817 C.2       1 <0>         0.4298
     10 C8          2.1784   -4.1064   -0.7652 C.2       1 <0>        -0.2918
     11 C9          1.4222   -4.8504    0.1693 C.2       1 <0>         0.5227
     12 O1          0.8166   -4.2872    1.0649 O.2       1 <0>        -0.4685
     13 C10         2.2493   -2.6932   -0.6813 C.2       1 <0>         0.2539
     14 N3          1.5254   -2.0529    0.2014 N.2       1 <0>        -0.4909
     15 C11         1.5938   -0.6890    0.2824 C.ar      1 <0>         0.1652
     16 C12         0.4242    0.0670    0.3920 C.ar      1 <0>        -0.1362
     17 C13         0.5007    1.4417    0.4736 C.ar      1 <0>         0.0025
     18 C14         1.7322    2.0722    0.4472 C.ar      1 <0>        -0.6853
     19 C15         2.8949    1.3297    0.3388 C.ar      1 <0>        -0.0050
     20 C16         2.8335   -0.0457    0.2563 C.ar      1 <0>        -0.1847
     21 S1          1.8203    3.8289    0.5516 S.o2      1 <0>         2.6384
     22 O2          3.0534    4.2098   -0.0431 O.2       1 <0>        -0.9893
     23 O3          0.5693    4.3260    0.0963 O.2       1 <0>        -0.9547
     24 N4          1.9286    4.2192    2.1573 N.pl3     1 <0>        -1.1632
     25 N5          3.6198   -4.1206   -2.7091 N.pl3     1 <0>        -0.4776
     26 C17         4.8025   -4.9156   -3.1279 C.3       1 <0>         0.0297
     27 C18         5.2001   -4.2736   -4.4808 C.3       1 <0>        -0.1221
     28 C19         3.8327   -3.9417   -5.1211 C.3       1 <0>        -0.1244
     29 C20         2.8432   -3.8724   -3.9431 C.3       1 <0>         0.0498
     30 H1          2.5991  -10.0122   -2.0782 H         1 <0>         0.0750
     31 H2          3.8361   -8.7097   -2.0698 H         1 <0>         0.0810
     32 H3          2.3973   -8.5750   -3.1367 H         1 <0>         0.0804
     33 H4          1.2301  -10.0147   -0.2333 H         1 <0>         0.1573
     34 H5          0.0024   -8.8284    1.5715 H         1 <0>         0.1649
     35 H6          0.1108   -6.4116    1.7318 H         1 <0>         0.1864
     36 H7          2.9127   -2.1346   -1.3580 H         1 <0>         0.1240
     37 H8         -0.5376   -0.4239    0.4131 H         1 <0>         0.1367
     38 H9         -0.4029    2.0277    0.5539 H         1 <0>         0.1444
     39 H10         3.8526    1.8284    0.3188 H         1 <0>         0.1403
     40 H11         3.7417   -0.6240    0.1721 H         1 <0>         0.1313
     41 H12         1.9859    5.3123    2.2659 H         1 <0>         0.4122
     42 H13         2.8317    3.7603    2.5861 H         1 <0>         0.4085
     43 H14         5.5938   -4.8231   -2.3694 H         1 <0>         0.0846
     44 H15         4.5158   -5.9725   -3.2316 H         1 <0>         0.0814
     45 H16         5.8099   -3.3769   -4.2960 H         1 <0>         0.0782
     46 H17         5.7807   -4.9962   -5.0730 H         1 <0>         0.0797
     47 H18         3.8996   -2.9799   -5.6507 H         1 <0>         0.0808
     48 H19         3.5593   -4.7342   -5.8333 H         1 <0>         0.0758
     49 H20         2.0628   -4.6407   -4.0459 H         1 <0>         0.0574
     50 H21         2.3745   -2.8788   -3.8878 H         1 <0>         0.0897
@<TRIPOS>BOND
     1    1    2 1
     2    1   30 1
     3    1   31 1
     4    1   32 1
     5    2    7 1
     6    2    3 2
     7    3    4 1
     8    3   33 1
     9    4    5 2
    10    4   34 1
    11    5    6 1
    12    5   35 1
    13    6   11 am
    14    6    7 1
    15    7    8 2
    16    8    9 1
    17    9   10 2
    18    9   25 1
    19   10   11 1
    20   10   13 1
    21   11   12 2
    22   13   14 2
    23   13   36 1
    24   14   15 1
    25   15   20 ar
    26   15   16 ar
    27   16   17 ar
    28   16   37 1
    29   17   18 ar
    30   17   38 1
    31   18   19 ar
    32   18   21 1
    33   19   20 ar
    34   19   39 1
    35   20   40 1
    36   21   22 2
    37   21   23 2
    38   21   24 1
    39   24   41 1
    40   24   42 1
    41   25   29 1
    42   25   26 1
    43   26   27 1
    44   26   43 1
    45   26   44 1
    46   27   28 1
    47   27   45 1
    48   27   46 1
    49   28   29 1
    50   28   47 1
    51   28   48 1
    52   29   49 1
    53   29   50 1
@<TRIPOS>MOLECULE
ZINC39465980
   43    46     0     0     0
SMALL
USER_CHARGES

@<TRIPOS>ATOM
      1 C1         -0.0167    1.3784    0.0096 C.ar      1 <0>        -0.0864
      2 C2          1.1698    2.0883    0.0021 C.ar      1 <0>        -0.1061
      3 C3          2.3773    1.4175   -0.0134 C.ar      1 <0>        -0.0782
      4 C4          2.3989    0.0304   -0.0210 C.ar      1 <0>         0.0296
      5 C5          1.2070   -0.6796   -0.0130 C.ar      1 <0>        -0.1037
      6 C6          0.0021   -0.0041    0.0020 C.ar      1 <0>        -0.0953
      7 O1          3.5855   -0.6319   -0.0368 O.3       1 <0>        -0.6023
      8 S1          4.1403   -0.9410    1.3464 S.o2      1 <0>         2.1038
      9 O2          5.4582   -1.4363    1.1539 O.2       1 <0>        -0.8413
     10 O3          3.8634    0.1924    2.1576 O.2       1 <0>        -0.8862
     11 P1          2.9996   -2.5442    2.1354 P.3       1 <0>         1.3869
     12 O4          3.1497   -3.7452    1.2837 O.2       1 <0>        -0.7497
     13 N1          3.4748   -2.8755    3.6841 N.pl3     1 <0>        -0.8904
     14 N2          2.5696   -3.5470    4.4756 N.3       1 <0>        -0.2588
     15 C7          3.1338   -3.7463    5.8192 C.3       1 <0>         0.0274
     16 C8          2.2753   -4.7663    6.5669 C.3       1 <0>        -0.0735
     17 C9          0.8271   -4.3521    6.5053 C.ar      1 <0>        -0.0619
     18 C10        -0.0568   -4.8981    7.4241 C.ar      1 <0>        -0.0906
     19 C11        -1.3917   -4.5472    7.4024 C.ar      1 <0>        -0.0549
     20 C12        -1.8499   -3.6417    6.4546 C.ar      1 <0>         0.1218
     21 C13        -0.9652   -3.0983    5.5388 C.ar      1 <0>        -0.1282
     22 C14         0.3759   -3.4535    5.5627 C.ar      1 <0>        -0.0550
     23 C15         1.2951   -2.8324    4.5441 C.3       1 <0>         0.0317
     24 H1          1.4881   -1.7987    4.8310 H         1 <0>         0.0843
     25 C16         0.5965   -2.8225    3.1810 C.3       1 <0>         0.0994
     26 O5          1.4326   -2.1212    2.2392 O.3       1 <0>        -0.5806
     27 O6         -3.1625   -3.2898    6.4262 O.3       1 <0>        -0.4833
     28 Cl1        -2.4928   -5.2352    8.5547 Cl        1 <0>        -0.0469
     29 H2         -0.9596    1.9047    0.0260 H         1 <0>         0.1400
     30 H3          1.1525    3.1682    0.0080 H         1 <0>         0.1432
     31 H4          3.3038    1.9724   -0.0200 H         1 <0>         0.1425
     32 H5          1.2211   -1.7595   -0.0193 H         1 <0>         0.1431
     33 H6         -0.9260   -0.5563    0.0082 H         1 <0>         0.1449
     34 H7          4.3463   -2.6107    4.0179 H         1 <0>         0.4087
     35 H8          4.1545   -4.1194    5.7352 H         1 <0>         0.1043
     36 H9          3.1317   -2.8002    6.3604 H         1 <0>         0.0587
     37 H10         2.3922   -5.7468    6.1053 H         1 <0>         0.1006
     38 H11         2.5946   -4.8156    7.6079 H         1 <0>         0.0978
     39 H12         0.3013   -5.6022    8.1606 H         1 <0>         0.1440
     40 H13        -1.3210   -2.3942    4.8013 H         1 <0>         0.1445
     41 H14         0.4427   -3.8468    2.8415 H         1 <0>         0.0926
     42 H15        -0.3642   -2.3147    3.2661 H         1 <0>         0.1272
     43 H16        -3.3757   -2.5218    6.9738 H         1 <0>         0.3961
@<TRIPOS>BOND
     1    1    6 ar
     2    1    2 ar
     3    1   29 1
     4    2    3 ar
     5    2   30 1
     6    3    4 ar
     7    3   31 1
     8    4    5 ar
     9    4    7 1
    10    5    6 ar
    11    5   32 1
    12    6   33 1
    13    7    8 1
    14    8    9 2
    15    8   10 2
    16    8   11 1
    17   11   26 1
    18   11   12 2
    19   11   13 1
    20   13   14 1
    21   13   34 1
    22   14   23 1
    23   14   15 1
    24   15   16 1
    25   15   35 1
    26   15   36 1
    27   16   17 1
    28   16   37 1
    29   16   38 1
    30   17   22 ar
    31   17   18 ar
    32   18   19 ar
    33   18   39 1
    34   19   20 ar
    35   19   28 1
    36   20   21 ar
    37   20   27 1
    38   21   22 ar
    39   21   40 1
    40   22   23 1
    41   23   24 1
    42   23   25 1
    43   25   26 1
    44   25   41 1
    45   25   42 1
    46   27   43 1
@<TRIPOS>MOLECULE
ZINC64480084
   57    61     0     0     0
SMALL
USER_CHARGES

@<TRIPOS>ATOM
      1 C1         -0.3928    1.9391    0.1963 C.3       1 <0>        -0.1672
      2 C2         -0.2137    0.4216    0.1180 C.3       1 <0>         0.1486
      3 H1          0.3324    0.1666   -0.7902 H         1 <0>         0.0994
      4 C3          0.5717   -0.0628    1.3384 C.3       1 <0>        -0.1012
      5 C4          0.8545   -1.5367    1.2011 C.2       1 <0>         0.0760
      6 C5          1.9782   -2.1067    0.7093 C.ar      1 <0>        -0.1743
      7 C6          3.2250   -1.5467    0.1744 C.ar      1 <0>        -0.0071
      8 C7          4.1924   -2.3897   -0.2532 C.ar      1 <0>        -0.1552
      9 C8          4.0342   -3.7813   -0.1988 C.ar      1 <0>         0.0528
     10 C9          2.9176   -4.3702    0.2793 C.ar      1 <0>        -0.2095
     11 C10         1.8360   -3.5795    0.7564 C.ar      1 <0>         0.3276
     12 N1          0.6699   -3.9072    1.2579 N.pl3     1 <0>        -0.5852
     13 C11        -0.0580   -2.6778    1.5915 C.3       1 <0>         0.0551
     14 N2         -1.5282   -0.2248    0.0952 N.am      1 <0>        -0.7467
     15 C12        -2.1866   -0.3721   -1.0715 C.2       1 <0>         0.5230
     16 O1         -1.6908    0.0304   -2.1026 O.2       1 <0>        -0.5141
     17 C13        -3.5387   -1.0370   -1.0950 C.3       1 <0>        -0.1050
     18 H2         -4.2323   -0.4733   -0.4711 H         1 <0>         0.1092
     19 C14        -3.4150   -2.4661   -0.5594 C.3       1 <0>        -0.1034
     20 C15        -4.7805   -3.1540   -0.6427 C.3       1 <0>        -0.1136
     21 C16        -5.2680   -3.1353   -2.0932 C.3       1 <0>         0.0536
     22 N3         -5.3704   -1.7463   -2.5587 N.3       1 <0>        -0.5017
     23 C17        -4.0627   -1.0788   -2.5323 C.3       1 <0>         0.0829
     24 C18        -5.9667   -1.6831   -3.8997 C.3       1 <0>         0.3328
     25 H3         -5.9267   -0.6574   -4.2663 H         1 <0>         0.0730
     26 C19        -7.4262   -2.1429   -3.8305 C.3       1 <0>        -0.0602
     27 H4         -7.5553   -2.9972   -3.1660 H         1 <0>         0.1099
     28 C20        -7.8211   -2.4627   -5.2726 C.2       1 <0>         0.4037
     29 N4         -8.8321   -1.7135   -5.5407 N.2       1 <0>        -0.6108
     30 C21        -9.1064   -0.8709   -4.5313 C.2       1 <0>         0.2760
     31 N5         -8.3261   -1.0344   -3.4886 N.2       1 <0>        -0.5628
     32 N6         -7.0673   -3.3315   -6.0110 N.2       1 <0>        -0.6681
     33 C22        -5.7059   -3.2740   -5.7428 C.2       1 <0>         0.4639
     34 N7         -5.2194   -2.5519   -4.8049 N.2       1 <0>        -0.7220
     35 Cl1        -4.6229   -4.2191   -6.7163 Cl        1 <0>        -0.0480
     36 H5          0.5852    2.4200    0.2132 H         1 <0>         0.0722
     37 H6         -0.9524    2.2842   -0.6732 H         1 <0>         0.0763
     38 H7         -0.9389    2.1941    1.1045 H         1 <0>         0.0661
     39 H8          1.5128    0.4831    1.4049 H         1 <0>         0.1253
     40 H9         -0.0144    0.1122    2.2406 H         1 <0>         0.1176
     41 H10         3.3677   -0.4775    0.1227 H         1 <0>         0.1606
     42 H11         5.1106   -1.9798   -0.6471 H         1 <0>         0.1567
     43 H12         4.8385   -4.4082   -0.5544 H         1 <0>         0.1594
     44 H13         2.8451   -5.4476    0.2994 H         1 <0>         0.1595
     45 H14        -0.2685   -2.6417    2.6604 H         1 <0>         0.1748
     46 H15        -0.9867   -2.6276    1.0231 H         1 <0>         0.1691
     47 H16        -1.9247   -0.5467    0.9199 H         1 <0>         0.3972
     48 H17        -2.6917   -3.0185   -1.1591 H         1 <0>         0.0613
     49 H18        -3.0837   -2.4386    0.4787 H         1 <0>         0.0529
     50 H19        -4.6896   -4.1856   -0.3025 H         1 <0>         0.0659
     51 H20        -5.4941   -2.6238   -0.0121 H         1 <0>         0.0742
     52 H21        -4.5609   -3.6775   -2.7210 H         1 <0>         0.0461
     53 H22        -6.2465   -3.6117   -2.1536 H         1 <0>         0.0687
     54 H23        -4.1656   -0.0619   -2.9110 H         1 <0>         0.0740
     55 H24        -3.3614   -1.6302   -3.1586 H         1 <0>         0.0543
     56 H25        -9.8947   -0.1337   -4.5702 H         1 <0>         0.1809
     57 H26         0.3444   -4.8114    1.3899 H         1 <0>         0.4553
@<TRIPOS>BOND
     1    1    2 1
     2    1   36 1
     3    1   37 1
     4    1   38 1
     5    2    3 1
     6    2    4 1
     7    2   14 1
     8    4    5 1
     9    4   39 1
    10    4   40 1
    11    5   13 1
    12    5    6 2
    13    6   11 ar
    14    6    7 ar
    15    7    8 ar
    16    7   41 1
    17    8    9 ar
    18    8   42 1
    19    9   10 ar
    20    9   43 1
    21   10   11 ar
    22   10   44 1
    23   11   12 2
    24   12   13 1
    25   12   57 1
    26   13   45 1
    27   13   46 1
    28   14   15 am
    29   14   47 1
    30   15   16 2
    31   15   17 1
    32   17   18 1
    33   17   23 1
    34   17   19 1
    35   19   20 1
    36   19   48 1
    37   19   49 1
    38   20   21 1
    39   20   50 1
    40   20   51 1
    41   21   22 1
    42   21   52 1
    43   21   53 1
    44   22   23 1
    45   22   24 1
    46   23   54 1
    47   23   55 1
    48   24   25 1
    49   24   34 1
    50   24   26 1
    51   26   27 1
    52   26   31 1
    53   26   28 1
    54   28   29 2
    55   28   32 1
    56   29   30 1
    57   30   31 2
    58   30   56 1
    59   32   33 1
    60   33   34 2
    61   33   35 1
@<TRIPOS>MOLECULE
ZINC35766272
   34    35     0     0     0
SMALL
USER_CHARGES

@<TRIPOS>ATOM
      1 C1          0.0222    1.2439    0.3870 C.3       1 <0>        -0.1821
      2 C2         -0.0321   -0.2482    0.0529 C.3       1 <0>         0.1028
      3 N1          0.5804   -0.4777   -1.2579 N.pl3     1 <0>        -0.9850
      4 C3          2.0244   -0.7017   -1.3626 C.3       1 <0>         0.1373
      5 C4          2.4614   -1.8024   -0.3741 C.3       1 <0>        -0.1330
      6 C5          3.8454   -1.3283    0.1347 C.3       1 <0>        -0.1245
      7 C6          3.6594    0.2049    0.2525 C.3       1 <0>        -0.1223
      8 C7          2.7860    0.5746   -0.9643 C.3       1 <0>        -0.1520
      9 S1         -0.3595   -0.4839   -2.6214 S.o2      1 <0>         2.7008
     10 O1          0.3394   -1.2499   -3.5929 O.2       1 <0>        -0.9415
     11 O2         -1.6792   -0.8047   -2.2034 O.2       1 <0>        -0.9410
     12 C8         -0.4110    1.1703   -3.2261 C.ar      1 <0>        -0.8009
     13 C9         -1.3933    2.0508   -2.8010 C.ar      1 <0>         0.2695
     14 N2         -1.4010    3.2856   -3.2766 N.ar      1 <0>        -0.5131
     15 C10        -0.4892    3.6811   -4.1441 C.ar      1 <0>         0.4075
     16 N3          0.4602    2.8704   -4.5706 N.ar      1 <0>        -0.5129
     17 C11         0.5333    1.6234   -4.1338 C.ar      1 <0>         0.2704
     18 Cl1        -0.5403    5.3106   -4.7404 Cl        1 <0>         0.0491
     19 H1          1.0482    1.5264    0.6224 H         1 <0>         0.0699
     20 H2         -0.3262    1.8209   -0.4696 H         1 <0>         0.0481
     21 H3         -0.6169    1.4473    1.2463 H         1 <0>         0.0745
     22 H4          0.5121   -0.8104    0.8117 H         1 <0>         0.0965
     23 H5         -1.0707   -0.5782    0.0315 H         1 <0>         0.0972
     24 H6          2.2844   -0.9891   -2.3814 H         1 <0>         0.1078
     25 H7          1.7551   -1.8747    0.4530 H         1 <0>         0.0806
     26 H8          2.5508   -2.7609   -0.8855 H         1 <0>         0.0760
     27 H9          4.0700   -1.7660    1.1074 H         1 <0>         0.0712
     28 H10         4.6255   -1.5684   -0.5876 H         1 <0>         0.0714
     29 H11         3.1466    0.4568    1.1808 H         1 <0>         0.0667
     30 H12         4.6230    0.7113    0.1984 H         1 <0>         0.0678
     31 H13         3.4164    0.9061   -1.7894 H         1 <0>         0.0715
     32 H14         2.0813    1.3606   -0.6930 H         1 <0>         0.0807
     33 H15        -2.1428    1.7331   -2.0912 H         1 <0>         0.1957
     34 H16         1.3159    0.9663   -4.4832 H         1 <0>         0.1956
@<TRIPOS>BOND
     1    1    2 1
     2    1   19 1
     3    1   20 1
     4    1   21 1
     5    2    3 1
     6    2   22 1
     7    2   23 1
     8    3    4 1
     9    3    9 1
    10    4    8 1
    11    4    5 1
    12    4   24 1
    13    5    6 1
    14    5   25 1
    15    5   26 1
    16    6    7 1
    17    6   27 1
    18    6   28 1
    19    7    8 1
    20    7   29 1
    21    7   30 1
    22    8   31 1
    23    8   32 1
    24    9   10 2
    25    9   11 2
    26    9   12 1
    27   12   17 ar
    28   12   13 ar
    29   13   14 ar
    30   13   33 1
    31   14   15 ar
    32   15   16 ar
    33   15   18 1
    34   16   17 ar
    35   17   34 1
@<TRIPOS>MOLECULE
ZINC44122739
   38    39     0     0     0
SMALL
USER_CHARGES

@<TRIPOS>ATOM
      1 C1         -0.9407    1.9461   -0.3452 C.3       1 <0>        -0.1640
      2 C2         -0.4287    0.5052   -0.2946 C.3       1 <0>         0.1140
      3 C3          0.5246    0.3441    0.8912 C.3       1 <0>        -0.1460
      4 N1         -1.5615   -0.4104   -0.1383 N.am      1 <0>        -0.5851
      5 C4         -2.5062   -0.2251    0.9660 C.3       1 <0>         0.1438
      6 C5         -3.9067    0.0246    0.4026 C.3       1 <0>        -0.1723
      7 C6         -2.5240   -1.4819    1.8383 C.3       1 <0>        -0.1681
      8 C7         -1.7346   -1.4233   -1.0104 C.2       1 <0>         0.5925
      9 O1         -2.7507   -2.0908   -0.9733 O.2       1 <0>        -0.5291
     10 C8         -0.6930   -1.7220   -2.0089 C.2       1 <0>        -0.0183
     11 C9         -0.9969   -2.4393   -3.1486 C.2       1 <0>        -0.1897
     12 S1          0.4874   -2.5088   -3.9391 S.3       1 <0>         0.2117
     13 C10         1.4534   -1.5960   -2.7491 C.2       1 <0>         0.0811
     14 N2          0.5507   -1.3024   -1.8318 N.2       1 <0>        -0.4088
     15 C11         2.8917   -1.2527   -2.7838 C.ar      1 <0>         0.1576
     16 C12         3.6818   -1.6530   -3.8633 C.ar      1 <0>         0.0782
     17 N3          4.9643   -1.3434   -3.8890 N.ar      1 <0>        -0.4270
     18 C13         5.5007   -0.6558   -2.8950 C.ar      1 <0>         0.0617
     19 C14         4.7212   -0.2568   -1.8225 C.ar      1 <0>         0.0634
     20 N4          3.4362   -0.5567   -1.7891 N.ar      1 <0>        -0.4018
     21 H1         -0.0978    2.6273   -0.4615 H         1 <0>         0.0677
     22 H2         -1.6198    2.0609   -1.1900 H         1 <0>         0.0545
     23 H3         -1.4692    2.1766    0.5798 H         1 <0>         0.0574
     24 H4          0.0999    0.2747   -1.2196 H         1 <0>         0.1296
     25 H5          0.8894   -0.6824    0.9273 H         1 <0>         0.0601
     26 H6          1.3675    1.0254    0.7750 H         1 <0>         0.0650
     27 H7         -0.0039    0.5746    1.8162 H         1 <0>         0.0478
     28 H8         -2.1988    0.6303    1.5675 H         1 <0>         0.0878
     29 H9         -4.1885   -0.8019   -0.2497 H         1 <0>         0.0826
     30 H10        -4.6203    0.0996    1.2231 H         1 <0>         0.0629
     31 H11        -3.9088    0.9540   -0.1669 H         1 <0>         0.0519
     32 H12        -1.5489   -1.6123    2.3076 H         1 <0>         0.0541
     33 H13        -3.2874   -1.3782    2.6094 H         1 <0>         0.0659
     34 H14        -2.7484   -2.3506    1.2193 H         1 <0>         0.0725
     35 H15        -1.9468   -2.8516   -3.4554 H         1 <0>         0.2142
     36 H16         3.2444   -2.2149   -4.6752 H         1 <0>         0.1724
     37 H17         6.5508   -0.4048   -2.9196 H         1 <0>         0.1792
     38 H18         5.1647    0.3043   -1.0133 H         1 <0>         0.1805
@<TRIPOS>BOND
     1    1    2 1
     2    1   21 1
     3    1   22 1
     4    1   23 1
     5    2    3 1
     6    2    4 1
     7    2   24 1
     8    3   25 1
     9    3   26 1
    10    3   27 1
    11    4    5 1
    12    4    8 am
    13    5    6 1
    14    5    7 1
    15    5   28 1
    16    6   29 1
    17    6   30 1
    18    6   31 1
    19    7   32 1
    20    7   33 1
    21    7   34 1
    22    8    9 2
    23    8   10 1
    24   10   14 1
    25   10   11 2
    26   11   12 1
    27   11   35 1
    28   12   13 1
    29   13   14 2
    30   13   15 1
    31   15   20 ar
    32   15   16 ar
    33   16   17 ar
    34   16   36 1
    35   17   18 ar
    36   18   19 ar
    37   18   37 1
    38   19   20 ar
    39   19   38 1
@<TRIPOS>MOLECULE
ZINC50288380
   39    40     0     0     0
SMALL
USER_CHARGES

@<TRIPOS>ATOM
      1 C1          0.1037    1.6326    0.1663 C.3       1 <0>        -0.1190
      2 C2          0.1147    0.1262    0.1240 C.ar      1 <0>        -0.0196
      3 C3          0.1259   -0.5498   -1.0882 C.ar      1 <0>        -0.1846
      4 C4          0.1358   -1.9310   -1.0917 C.ar      1 <0>         0.1332
      5 N1          0.1348   -2.6101    0.0390 N.ar      1 <0>        -0.5049
      6 C5          0.1243   -2.0020    1.2140 C.ar      1 <0>         0.3731
      7 C6          0.1197   -0.6148    1.2931 C.ar      1 <0>        -0.1618
      8 N2          0.1236   -2.7625    2.3873 N.pl3     1 <0>        -0.3249
      9 C7         -0.3269   -4.0378    2.5143 C.2       1 <0>         0.1500
     10 C8         -0.1511   -4.4075    3.8037 C.2       1 <0>        -0.2333
     11 C9          0.4230   -3.3297    4.4875 C.2       1 <0>         0.1084
     12 N3          0.5929   -2.3474    3.6403 N.2       1 <0>        -0.2846
     13 C10         0.7890   -3.3069    5.9491 C.3       1 <0>        -0.0780
     14 C11        -0.5108   -5.7443    4.3991 C.3       1 <0>         0.0034
     15 H1         -0.1609   -5.7887    5.4304 H         1 <0>         0.1189
     16 C12         0.1520   -6.8591    3.5873 C.3       1 <0>        -0.1494
     17 C13        -2.0070   -5.9219    4.3681 C.2       1 <0>         0.4588
     18 O1         -2.7092   -5.0521    3.9097 O.2       1 <0>        -0.4948
     19 O2         -2.5595   -7.0463    4.8499 O.3       1 <0>        -0.3527
     20 C14        -3.9836   -7.1472    4.7888 C.3       1 <0>         0.0326
     21 C15        -0.9164   -4.8867    1.4176 C.3       1 <0>        -0.0870
     22 H2          1.1286    2.0033    0.1769 H         1 <0>         0.0824
     23 H3         -0.4127    2.0170   -0.7133 H         1 <0>         0.0769
     24 H4         -0.4130    1.9670    1.0660 H         1 <0>         0.0747
     25 H5          0.1265   -0.0016   -2.0187 H         1 <0>         0.1432
     26 H6          0.1442   -2.4616   -2.0323 H         1 <0>         0.1683
     27 H7          0.1162   -0.1214    2.2538 H         1 <0>         0.1452
     28 H8          1.8382   -3.5786    6.0652 H         1 <0>         0.0848
     29 H9          0.6265   -2.3059    6.3488 H         1 <0>         0.0794
     30 H10         0.1671   -4.0197    6.4906 H         1 <0>         0.0796
     31 H11         1.2356   -6.7642    3.6569 H         1 <0>         0.0750
     32 H12        -0.1541   -7.8276    3.9826 H         1 <0>         0.0743
     33 H13        -0.1534   -6.7795    2.5440 H         1 <0>         0.0655
     34 H14        -4.4304   -6.3333    5.3598 H         1 <0>         0.0599
     35 H15        -4.3081   -7.0831    3.7502 H         1 <0>         0.0597
     36 H16        -4.2986   -8.1020    5.2096 H         1 <0>         0.1027
     37 H17        -0.1216   -5.4456    0.9236 H         1 <0>         0.0870
     38 H18        -1.6383   -5.5826    1.8450 H         1 <0>         0.0770
     39 H19        -1.4158   -4.2460    0.6908 H         1 <0>         0.0804
@<TRIPOS>BOND
     1    1    2 1
     2    1   22 1
     3    1   23 1
     4    1   24 1
     5    2    7 ar
     6    2    3 ar
     7    3    4 ar
     8    3   25 1
     9    4    5 ar
    10    4   26 1
    11    5    6 ar
    12    6    7 ar
    13    6    8 1
    14    7   27 1
    15    8   12 1
    16    8    9 1
    17    9   10 2
    18    9   21 1
    19   10   11 1
    20   10   14 1
    21   11   12 2
    22   11   13 1
    23   13   28 1
    24   13   29 1
    25   13   30 1
    26   14   15 1
    27   14   16 1
    28   14   17 1
    29   16   31 1
    30   16   32 1
    31   16   33 1
    32   17   18 2
    33   17   19 1
    34   19   20 1
    35   20   34 1
    36   20   35 1
    37   20   36 1
    38   21   37 1
    39   21   38 1
    40   21   39 1
@<TRIPOS>MOLECULE
ZINC60740282
   39    41     0     0     0
SMALL
USER_CHARGES

@<TRIPOS>ATOM
      1 C1         -0.0162    1.3471    0.0094 C.2       1 <0>        -0.2234
      2 C2          1.3194    1.7784   -0.0010 C.2       1 <0>        -0.1126
      3 C3          2.0948    0.6545   -0.0144 C.2       1 <0>        -0.0774
      4 O1          1.2758   -0.4177   -0.0124 O.3       1 <0>        -0.1621
      5 C4          0.0021   -0.0041    0.0020 C.2       1 <0>        -0.0047
      6 C5          3.5608    0.6191   -0.0290 C.2       1 <0>         0.6260
      7 O2          4.1946    1.6580   -0.0299 O.2       1 <0>        -0.5108
      8 N1          4.2062   -0.5641   -0.0415 N.am      1 <0>        -0.5986
      9 C6          3.5660   -1.8920   -0.0485 C.3       1 <0>         0.0969
     10 C7          4.6283   -2.8475    0.5499 C.3       1 <0>        -0.1305
     11 C8          5.9397   -2.2627   -0.0378 C.3       1 <0>        -0.1183
     12 C9          5.6653   -0.7441   -0.0568 C.3       1 <0>         0.1485
     13 C10         6.2442   -0.1315   -1.3061 C.2       1 <0>         0.4556
     14 O3          5.5298    0.0993   -2.2528 O.2       1 <0>        -0.4914
     15 O4          7.5536    0.1577   -1.3672 O.3       1 <0>        -0.3420
     16 C11         8.0341    0.7367   -2.5820 C.3       1 <0>         0.0809
     17 C12         8.5456   -0.3691   -3.5283 C.3       1 <0>        -0.1417
     18 C13         9.7826    0.2609   -4.2152 C.3       1 <0>        -0.1234
     19 C14        10.4325    1.0750   -3.0689 C.3       1 <0>        -0.1230
     20 C15         9.2338    1.6548   -2.2899 C.3       1 <0>        -0.1233
     21 H1         -0.8936    1.9767    0.0252 H         1 <0>         0.1591
     22 H2          1.6667    2.8011    0.0012 H         1 <0>         0.1612
     23 H3         -0.8672   -0.6449    0.0072 H         1 <0>         0.2126
     24 H4          2.6700   -1.8844    0.5721 H         1 <0>         0.0945
     25 H5          3.3198   -2.1891   -1.0679 H         1 <0>         0.0770
     26 H6          4.6310   -2.7960    1.6387 H         1 <0>         0.0862
     27 H7          4.4696   -3.8707    0.2092 H         1 <0>         0.0960
     28 H8          6.7882   -2.4956    0.6056 H         1 <0>         0.1034
     29 H9          6.1080   -2.6332   -1.0490 H         1 <0>         0.0840
     30 H10         6.1055   -0.2786    0.8250 H         1 <0>         0.1171
     31 H11         7.2386    1.3040   -3.0652 H         1 <0>         0.0863
     32 H12         8.8338   -1.2539   -2.9606 H         1 <0>         0.0779
     33 H13         7.7852   -0.6202   -4.2678 H         1 <0>         0.0723
     34 H14        10.4619   -0.5129   -4.5727 H         1 <0>         0.0736
     35 H15         9.4791    0.9170   -5.0310 H         1 <0>         0.0710
     36 H16        11.0254    0.4235   -2.4269 H         1 <0>         0.0710
     37 H17        11.0491    1.8778   -3.4731 H         1 <0>         0.0720
     38 H18         9.0209    2.6676   -2.6321 H         1 <0>         0.0780
     39 H19         9.4495    1.6588   -1.2215 H         1 <0>         0.0822
@<TRIPOS>BOND
     1    1    5 2
     2    1    2 1
     3    1   21 1
     4    2    3 2
     5    2   22 1
     6    3    4 1
     7    3    6 1
     8    4    5 1
     9    5   23 1
    10    6    7 2
    11    6    8 am
    12    8   12 1
    13    8    9 1
    14    9   10 1
    15    9   24 1
    16    9   25 1
    17   10   11 1
    18   10   26 1
    19   10   27 1
    20   11   12 1
    21   11   28 1
    22   11   29 1
    23   12   13 1
    24   12   30 1
    25   13   14 2
    26   13   15 1
    27   15   16 1
    28   16   20 1
    29   16   17 1
    30   16   31 1
    31   17   18 1
    32   17   32 1
    33   17   33 1
    34   18   19 1
    35   18   34 1
    36   18   35 1
    37   19   20 1
    38   19   36 1
    39   19   37 1
    40   20   38 1
    41   20   39 1
@<TRIPOS>MOLECULE
ZINC66564725
   36    37     0     0     0
SMALL
USER_CHARGES

@<TRIPOS>ATOM
      1 C1         -0.0184    1.5028    0.0103 C.3       1 <0>        -0.0837
      2 C2          0.0021   -0.0041    0.0020 C.2       1 <0>         0.0669
      3 C3          0.0059   -0.7076   -1.1591 C.2       1 <0>        -0.1958
      4 S1          0.0324   -2.3789   -0.5312 S.3       1 <0>         0.1265
      5 C4          0.0357   -2.0088    1.1107 C.2       1 <0>         0.0259
      6 N1          0.0226   -0.6992    1.1217 N.2       1 <0>        -0.5143
      7 C5         -0.0083   -0.2146   -2.5831 C.3       1 <0>         0.1480
      8 N2          1.3720   -0.0351   -3.0530 N.3       1 <0>        -0.5344
      9 C6          2.0427    1.0443   -2.3161 C.3       1 <0>         0.0177
     10 C7          1.4072    0.2144   -4.5002 C.3       1 <0>         0.1384
     11 C8          2.8320    0.1490   -4.9867 C.2       1 <0>         0.2586
     12 N3          3.6817    1.1806   -5.0461 N.2       1 <0>        -0.5435
     13 C9          4.8335    0.7855   -5.5131 C.2       1 <0>         0.2988
     14 O1          4.7543   -0.5263   -5.7695 O.3       1 <0>        -0.1018
     15 N4          3.4382   -0.9218   -5.4123 N.2       1 <0>        -0.3216
     16 C10         6.0451    1.6556   -5.7274 C.3       1 <0>        -0.0114
     17 C11         7.2070    1.1290   -4.8828 C.3       1 <0>        -0.1522
     18 C12         6.4367    1.6296   -7.2062 C.3       1 <0>        -0.1519
     19 H1          1.0042    1.8801    0.0026 H         1 <0>         0.0766
     20 H2         -0.5455    1.8639   -0.8728 H         1 <0>         0.0725
     21 H3         -0.5286    1.8543    0.9071 H         1 <0>         0.0760
     22 H4          0.0494   -2.6867    1.9513 H         1 <0>         0.2180
     23 H5         -0.5152   -0.9438   -3.2150 H         1 <0>         0.0964
     24 H6         -0.5357    0.7380   -2.6326 H         1 <0>         0.0695
     25 H7          2.0640    0.8004   -1.2540 H         1 <0>         0.0746
     26 H8          3.0627    1.1559   -2.6838 H         1 <0>         0.0725
     27 H9          1.4991    1.9774   -2.4639 H         1 <0>         0.0386
     28 H10         0.8129   -0.5413   -5.0138 H         1 <0>         0.1088
     29 H11         0.9971    1.2026   -4.7086 H         1 <0>         0.0789
     30 H12         5.8146    2.6788   -5.4306 H         1 <0>         0.1196
     31 H13         7.4375    0.1058   -5.1796 H         1 <0>         0.0682
     32 H14         8.0833    1.7584   -5.0377 H         1 <0>         0.0815
     33 H15         6.9280    1.1476   -3.8292 H         1 <0>         0.0639
     34 H16         5.6089    2.0048   -7.8079 H         1 <0>         0.0642
     35 H17         7.3130    2.2589   -7.3612 H         1 <0>         0.0815
     36 H18         6.6671    0.6064   -7.5030 H         1 <0>         0.0682
@<TRIPOS>BOND
     1    1    2 1
     2    1   19 1
     3    1   20 1
     4    1   21 1
     5    2    6 1
     6    2    3 2
     7    3    4 1
     8    3    7 1
     9    4    5 1
    10    5    6 2
    11    5   22 1
    12    7    8 1
    13    7   23 1
    14    7   24 1
    15    8    9 1
    16    8   10 1
    17    9   25 1
    18    9   26 1
    19    9   27 1
    20   10   11 1
    21   10   28 1
    22   10   29 1
    23   11   15 2
    24   11   12 1
    25   12   13 2
    26   13   14 1
    27   13   16 1
    28   14   15 1
    29   16   17 1
    30   16   18 1
    31   16   30 1
    32   17   31 1
    33   17   32 1
    34   17   33 1
    35   18   34 1
    36   18   35 1
    37   18   36 1
@<TRIPOS>MOLECULE
ZINC35219794
   33    34     0     0     0
SMALL
USER_CHARGES

@<TRIPOS>ATOM
      1 C1         -0.0178    1.4608    0.0101 C.3       1 <0>         0.1060
      2 N1          0.0021   -0.0041    0.0020 N.pl3     1 <0>        -0.6529
      3 C2          0.0241   -0.7433    1.2666 C.3       1 <0>         0.1076
      4 C3         -0.0000   -0.6975   -1.2142 C.ar      1 <0>         0.1054
      5 C4          0.0131   -2.0860   -1.2218 C.ar      1 <0>        -0.1440
      6 C5          0.0115   -2.7700   -2.4214 C.ar      1 <0>        -0.1415
      7 C6         -0.0037   -2.0692   -3.6201 C.ar      1 <0>         0.2410
      8 C7         -0.0172   -0.6807   -3.6126 C.ar      1 <0>        -0.2229
      9 C8         -0.0209    0.0032   -2.4129 C.ar      1 <0>        -0.1322
     10 N2         -0.0048   -2.7626   -4.8364 N.2       1 <0>        -1.0827
     11 S1         -0.0229   -1.9270   -6.2659 S.o2      1 <0>         2.5960
     12 O1         -1.2755   -1.2591   -6.3301 O.2       1 <0>        -1.0317
     13 O2          1.2150   -1.2339   -6.3469 O.2       1 <0>        -1.0144
     14 C9         -0.0196   -3.1171   -7.5652 C.ar      1 <0>        -0.6568
     15 C10        -1.1051   -3.2259   -8.4202 C.ar      1 <0>         0.0201
     16 C11        -1.0585   -4.1763   -9.4289 C.ar      1 <0>        -0.1996
     17 C12         0.0604   -4.9785   -9.5480 C.ar      1 <0>         0.1458
     18 N3          1.0757   -4.8483   -8.7165 N.ar      1 <0>        -0.4981
     19 C13         1.0690   -3.9512   -7.7485 C.ar      1 <0>         0.2637
     20 Cl1         2.4382   -3.8208   -6.6894 Cl        1 <0>         0.0112
     21 H1          1.0048    1.8381    0.0023 H         1 <0>         0.0335
     22 H2         -0.5450    1.8219   -0.8730 H         1 <0>         0.0621
     23 H3         -0.5280    1.8123    0.9069 H         1 <0>         0.0515
     24 H4         -0.9979   -0.9406    1.5900 H         1 <0>         0.0329
     25 H5          0.5496   -1.6879    1.1262 H         1 <0>         0.0624
     26 H6          0.5371   -0.1514    2.0246 H         1 <0>         0.0509
     27 H7          0.0249   -2.6310   -0.2895 H         1 <0>         0.1061
     28 H8          0.0224   -3.8499   -2.4273 H         1 <0>         0.1123
     29 H9         -0.0290   -0.1357   -4.5449 H         1 <0>         0.0960
     30 H10        -0.0355    1.0831   -2.4069 H         1 <0>         0.1030
     31 H11        -1.9670   -2.5857   -8.3034 H         1 <0>         0.1573
     32 H12        -1.8868   -4.2886  -10.1128 H         1 <0>         0.1457
     33 H13         0.1038   -5.7209  -10.3311 H         1 <0>         0.1665
@<TRIPOS>BOND
     1    1    2 1
     2    1   21 1
     3    1   22 1
     4    1   23 1
     5    2    3 1
     6    2    4 1
     7    3   24 1
     8    3   25 1
     9    3   26 1
    10    4    9 ar
    11    4    5 ar
    12    5    6 ar
    13    5   27 1
    14    6    7 ar
    15    6   28 1
    16    7    8 ar
    17    7   10 1
    18    8    9 ar
    19    8   29 1
    20    9   30 1
    21   10   11 1
    22   11   12 2
    23   11   13 2
    24   11   14 1
    25   14   19 ar
    26   14   15 ar
    27   15   16 ar
    28   15   31 1
    29   16   17 ar
    30   16   32 1
    31   17   18 ar
    32   17   33 1
    33   18   19 ar
    34   19   20 1
@<TRIPOS>MOLECULE
ZINC40377531
   33    34     0     0     0
SMALL
USER_CHARGES

@<TRIPOS>ATOM
      1 C1         -0.0167    1.3789    0.0096 C.ar      1 <0>        -0.1122
      2 C2          1.1705    2.0873    0.0021 C.ar      1 <0>        -0.0245
      3 C3          2.3773    1.4143   -0.0131 C.ar      1 <0>        -0.0757
      4 C4          2.3978    0.0296   -0.0207 C.ar      1 <0>         0.0949
      5 C5          1.2090   -0.6794   -0.0132 C.ar      1 <0>        -0.1416
      6 C6          0.0021   -0.0041    0.0020 C.ar      1 <0>        -0.0723
      7 Br1        -1.6226   -0.9717    0.0124 Br        1 <0>        -0.0589
      8 F1          3.5774   -0.6288   -0.0360 F         1 <0>        -0.1379
      9 C7          3.6711    2.1872   -0.0218 C.3       1 <0>        -0.0613
     10 C8          4.2512    2.2265    1.3934 C.3       1 <0>        -0.1387
     11 H1          4.3549    1.2096    1.7720 H         1 <0>         0.0711
     12 C9          5.6236    2.9021    1.3635 C.3       1 <0>        -0.0759
     13 H2          5.5266    3.9154    0.9738 H         1 <0>         0.0894
     14 C10         6.5814    2.0928    0.4734 C.3       1 <0>        -0.1220
     15 C11         8.0362    2.5756    0.6882 C.3       1 <0>        -0.5812
     16 S1          8.0032    3.2001    2.4178 S.o2      1 <0>         2.3439
     17 O1          8.2814    4.5936    2.4116 O.2       1 <0>        -0.9488
     18 O2          8.7794    2.3358    3.2362 O.2       1 <0>        -0.9544
     19 C12         6.2188    2.9463    2.7998 C.3       1 <0>        -0.5207
     20 C13         3.3273    3.0058    2.2936 C.2       1 <0>         0.4987
     21 O3          2.3000    3.4853    1.8448 O.co2     1 <0>        -0.6853
     22 O4          3.6070    3.1568    3.4706 O.co2     1 <0>        -0.6881
     23 H3         -0.9593    1.9058    0.0260 H         1 <0>         0.1329
     24 H4          1.1548    3.1671    0.0077 H         1 <0>         0.1562
     25 H5          1.2239   -1.7592   -0.0195 H         1 <0>         0.1360
     26 H6          4.3802    1.7010   -0.6917 H         1 <0>         0.0626
     27 H7          3.4843    3.2043   -0.3663 H         1 <0>         0.0817
     28 H8          6.5091    1.0362    0.7311 H         1 <0>         0.0843
     29 H9          6.3057    2.2289   -0.5723 H         1 <0>         0.0914
     30 H10         8.7370    1.7467    0.5899 H         1 <0>         0.1331
     31 H11         8.2840    3.3773   -0.0075 H         1 <0>         0.1322
     32 H12         5.8147    3.7839    3.3683 H         1 <0>         0.1541
     33 H13         6.0577    2.0035    3.3225 H         1 <0>         0.1371
@<TRIPOS>BOND
     1    1    6 ar
     2    1    2 ar
     3    1   23 1
     4    2    3 ar
     5    2   24 1
     6    3    4 ar
     7    3    9 1
     8    4    5 ar
     9    4    8 1
    10    5    6 ar
    11    5   25 1
    12    6    7 1
    13    9   10 1
    14    9   26 1
    15    9   27 1
    16   10   11 1
    17   10   12 1
    18   10   20 1
    19   12   13 1
    20   12   19 1
    21   12   14 1
    22   14   15 1
    23   14   28 1
    24   14   29 1
    25   15   16 1
    26   15   30 1
    27   15   31 1
    28   16   17 2
    29   16   18 2
    30   16   19 1
    31   19   32 1
    32   19   33 1
    33   20   21 2
    34   20   22 1
@<TRIPOS>MOLECULE
ZINC46929697
   37    38     0     0     0
SMALL
USER_CHARGES

@<TRIPOS>ATOM
      1 C1         -0.0184    1.5028    0.0103 C.3       1 <0>        -0.2000
      2 C2          0.0021   -0.0041    0.0020 C.2       1 <0>         0.3955
      3 O1          1.0602   -0.5960   -0.0113 O.2       1 <0>        -0.4573
      4 C3         -1.2623   -0.7572    0.0100 C.ar      1 <0>        -0.1417
      5 C4         -2.4848   -0.0781    0.0195 C.ar      1 <0>        -0.0977
      6 C5         -3.6652   -0.7909    0.0265 C.ar      1 <0>        -0.0377
      7 C6         -3.6421   -2.1747    0.0242 C.ar      1 <0>        -0.5974
      8 C7         -2.4363   -2.8540    0.0153 C.ar      1 <0>        -0.0361
      9 C8         -1.2475   -2.1556    0.0024 C.ar      1 <0>        -0.0857
     10 S1         -5.1559   -3.0764    0.0332 S.o2      1 <0>         2.6384
     11 O2         -4.8638   -4.3550    0.5800 O.2       1 <0>        -1.0026
     12 O3         -6.1383   -2.2151    0.5921 O.2       1 <0>        -1.0029
     13 N1         -5.5875   -3.3245   -1.5462 N.2       1 <0>        -1.0531
     14 C9         -6.6705   -3.9679   -1.8257 C.2       1 <0>         0.4929
     15 O4         -7.4513   -4.4386   -0.8312 O.3       1 <0>        -0.7249
     16 C10        -7.0632   -4.1937   -3.2630 C.3       1 <0>        -0.0501
     17 H1         -7.5458   -5.1660   -3.3626 H         1 <0>         0.0801
     18 C11        -8.0289   -3.0902   -3.7132 C.3       1 <0>        -0.1044
     19 C12        -8.5480   -3.4411   -5.1092 C.3       1 <0>        -0.0860
     20 C13        -7.4025   -3.7888   -6.0143 C.2       1 <0>        -0.1721
     21 C14        -6.2164   -4.0967   -5.5974 C.2       1 <0>        -0.1436
     22 C15        -5.8175   -4.1445   -4.1504 C.3       1 <0>        -0.0787
     23 H2          1.0042    1.8801    0.0026 H         1 <0>         0.0841
     24 H3         -0.5455    1.8639   -0.8728 H         1 <0>         0.0958
     25 H4         -0.5286    1.8543    0.9071 H         1 <0>         0.0951
     26 H5         -2.5044    1.0017    0.0217 H         1 <0>         0.1368
     27 H6         -4.6101   -0.2679    0.0342 H         1 <0>         0.1444
     28 H7         -2.4266   -3.9340    0.0139 H         1 <0>         0.1443
     29 H8         -0.3074   -2.6871   -0.0091 H         1 <0>         0.1374
     30 H9         -8.8648   -3.0282   -3.0164 H         1 <0>         0.0679
     31 H10        -7.5042   -2.1354   -3.7466 H         1 <0>         0.0678
     32 H11        -9.2247   -4.2927   -5.0396 H         1 <0>         0.0692
     33 H12        -9.0864   -2.5869   -5.5198 H         1 <0>         0.0661
     34 H13        -7.5789   -3.7820   -7.0798 H         1 <0>         0.0944
     35 H14        -5.4666   -4.3379   -6.3363 H         1 <0>         0.0963
     36 H15        -5.2368   -3.2543   -3.9089 H         1 <0>         0.0984
     37 H16        -5.2092   -5.0305   -3.9687 H         1 <0>         0.0672
@<TRIPOS>BOND
     1    1    2 1
     2    1   23 1
     3    1   24 1
     4    1   25 1
     5    2    3 2
     6    2    4 1
     7    4    9 ar
     8    4    5 ar
     9    5    6 ar
    10    5   26 1
    11    6    7 ar
    12    6   27 1
    13    7    8 ar
    14    7   10 1
    15    8    9 ar
    16    8   28 1
    17    9   29 1
    18   10   11 2
    19   10   12 2
    20   10   13 1
    21   13   14 2
    22   14   15 1
    23   14   16 1
    24   16   17 1
    25   16   22 1
    26   16   18 1
    27   18   19 1
    28   18   30 1
    29   18   31 1
    30   19   20 1
    31   19   32 1
    32   19   33 1
    33   20   21 2
    34   20   34 1
    35   21   22 1
    36   21   35 1
    37   22   36 1
    38   22   37 1
@<TRIPOS>MOLECULE
ZINC46929199
   35    36     0     0     0
SMALL
USER_CHARGES

@<TRIPOS>ATOM
      1 C1         -0.0184    1.5028    0.0103 C.3       1 <0>        -0.1094
      2 C2          0.0021   -0.0041    0.0020 C.ar      1 <0>        -0.1241
      3 C3          0.0057   -0.6888   -1.1991 C.ar      1 <0>        -0.0776
      4 C4          0.0245   -2.0707   -1.2067 C.ar      1 <0>        -0.1464
      5 C5          0.0400   -2.7685   -0.0132 C.ar      1 <0>         0.0188
      6 C6          0.0373   -2.0840    1.1875 C.ar      1 <0>        -0.6316
      7 C7          0.0229   -0.7015    1.1951 C.ar      1 <0>        -0.0258
      8 S1          0.0566   -2.9732    2.7086 S.o2      1 <0>         2.6501
      9 O1          1.0941   -3.9382    2.6018 O.2       1 <0>        -1.0025
     10 O2          0.0222   -2.0032    3.7465 O.2       1 <0>        -1.0087
     11 N1         -1.3659   -3.8160    2.8011 N.2       1 <0>        -1.0540
     12 C8         -1.6133   -4.5679    3.8405 C.2       1 <0>         0.5029
     13 O3         -0.7067   -4.6581    4.8420 O.3       1 <0>        -0.7104
     14 C9         -2.8704   -5.3127    3.9223 C.2       1 <0>        -0.0801
     15 C10        -3.1265   -6.0913    4.9985 C.2       1 <0>        -0.0701
     16 C11        -4.3817   -6.8349    5.0801 C.2       1 <0>         0.0340
     17 C12        -4.7679   -7.6502    6.1084 C.2       1 <0>        -0.2033
     18 C13        -6.0342   -8.1543    5.7698 C.2       1 <0>        -0.2135
     19 C14        -6.3616   -7.6330    4.5675 C.2       1 <0>        -0.0494
     20 O4         -5.3656   -6.8335    4.1574 O.3       1 <0>        -0.1696
     21 C15         0.0595   -4.2753   -0.0215 C.3       1 <0>        -0.1450
     22 H1          1.0042    1.8801    0.0026 H         1 <0>         0.0674
     23 H2         -0.5455    1.8639   -0.8728 H         1 <0>         0.0639
     24 H3         -0.5286    1.8543    0.9071 H         1 <0>         0.0674
     25 H4         -0.0064   -0.1437   -2.1314 H         1 <0>         0.1225
     26 H5          0.0266   -2.6056   -2.1449 H         1 <0>         0.1258
     27 H6          0.0246   -0.1666    2.1333 H         1 <0>         0.1380
     28 H7         -3.5936   -5.2407    3.1235 H         1 <0>         0.1268
     29 H8         -2.4033   -6.1632    5.7973 H         1 <0>         0.1587
     30 H9         -4.2075   -7.8648    7.0064 H         1 <0>         0.1504
     31 H10        -6.6335   -8.8321    6.3597 H         1 <0>         0.1460
     32 H11        -7.2769   -7.8247    4.0273 H         1 <0>         0.1997
     33 H12         1.0917   -4.6253   -0.0291 H         1 <0>         0.0854
     34 H13        -0.4447   -4.6501    0.8693 H         1 <0>         0.0923
     35 H14        -0.4546   -4.6404   -0.9106 H         1 <0>         0.0715
@<TRIPOS>BOND
     1    1    2 1
     2    1   22 1
     3    1   23 1
     4    1   24 1
     5    2    7 ar
     6    2    3 ar
     7    3    4 ar
     8    3   25 1
     9    4    5 ar
    10    4   26 1
    11    5    6 ar
    12    5   21 1
    13    6    7 ar
    14    6    8 1
    15    7   27 1
    16    8    9 2
    17    8   10 2
    18    8   11 1
    19   11   12 2
    20   12   13 1
    21   12   14 1
    22   14   15 2
    23   14   28 1
    24   15   16 1
    25   15   29 1
    26   16   20 1
    27   16   17 2
    28   17   18 1
    29   17   30 1
    30   18   19 2
    31   18   31 1
    32   19   20 1
    33   19   32 1
    34   21   33 1
    35   21   34 1
    36   21   35 1
@<TRIPOS>MOLECULE
ZINC66002566
   39    40     0     0     0
SMALL
USER_CHARGES

@<TRIPOS>ATOM
      1 C1         -0.1508    1.3185    0.3630 C.ar      1 <0>        -0.1110
      2 C2          0.9352    2.1688    0.3824 C.ar      1 <0>        -0.0660
      3 C3          2.1975    1.6922    0.0229 C.ar      1 <0>        -0.0407
      4 C4          2.3511    0.3566   -0.3541 C.ar      1 <0>        -0.0659
      5 C5          1.2565   -0.4828   -0.3691 C.ar      1 <0>        -0.1111
      6 C6          0.0086   -0.0039   -0.0116 C.ar      1 <0>        -0.0416
      7 C7         -1.1825   -0.9270   -0.0299 C.3       1 <0>        -0.5833
      8 S1         -1.9646   -0.8727   -1.6658 S.o2      1 <0>         2.5672
      9 O1         -2.5528    0.4021   -1.8849 O.2       1 <0>        -0.9946
     10 O2         -1.1051   -1.4508   -2.6386 O.2       1 <0>        -0.9940
     11 N1         -3.2457   -1.9166   -1.5599 N.2       1 <0>        -1.0681
     12 C8         -4.0203   -2.1030   -2.5895 C.2       1 <0>         0.5142
     13 O3         -3.7786   -1.4439   -3.7460 O.3       1 <0>        -0.7005
     14 C9         -5.1599   -3.0317   -2.4953 C.2       1 <0>        -0.1407
     15 C10        -5.8703   -3.3235   -3.5792 C.2       1 <0>        -0.0738
     16 C11        -5.3449   -3.0018   -4.9607 C.3       1 <0>        -0.1162
     17 C12        -5.4342   -4.2657   -5.8224 C.3       1 <0>        -0.1172
     18 C13        -6.8692   -4.7949   -5.8012 C.3       1 <0>        -0.1200
     19 C14        -7.2461   -5.2147   -4.3795 C.3       1 <0>        -0.1149
     20 C15        -7.2225   -3.9917   -3.4638 C.3       1 <0>        -0.0850
     21 C16         3.3293    2.5694    0.0403 C.1       1 <0>         0.2631
     22 N2          4.2271    3.2652    0.0541 N.1       1 <0>        -0.4269
     23 H1         -1.1269    1.6846    0.6452 H         1 <0>         0.1420
     24 H2          0.8094    3.2009    0.6747 H         1 <0>         0.1366
     25 H3          3.3245   -0.0184   -0.6337 H         1 <0>         0.1366
     26 H4          1.3737   -1.5160   -0.6609 H         1 <0>         0.1421
     27 H5         -0.8565   -1.9450    0.1834 H         1 <0>         0.1374
     28 H6         -1.9001   -0.6093    0.7266 H         1 <0>         0.1373
     29 H7         -5.4179   -3.4753   -1.5450 H         1 <0>         0.1170
     30 H8         -5.9482   -2.2112   -5.4069 H         1 <0>         0.0606
     31 H9         -4.3062   -2.6786   -4.8914 H         1 <0>         0.1337
     32 H10        -5.1495   -4.0279   -6.8473 H         1 <0>         0.0576
     33 H11        -4.7608   -5.0251   -5.4248 H         1 <0>         0.0568
     34 H12        -7.5487   -4.0130   -6.1403 H         1 <0>         0.0585
     35 H13        -6.9479   -5.6552   -6.4659 H         1 <0>         0.0531
     36 H14        -8.2457   -5.6494   -4.3817 H         1 <0>         0.0570
     37 H15        -6.5299   -5.9516   -4.0160 H         1 <0>         0.0611
     38 H16        -7.3896   -4.3043   -2.4330 H         1 <0>         0.0664
     39 H17        -8.0027   -3.2944   -3.7689 H         1 <0>         0.0733
@<TRIPOS>BOND
     1    1    6 ar
     2    1    2 ar
     3    1   23 1
     4    2    3 ar
     5    2   24 1
     6    3    4 ar
     7    3   21 1
     8    4    5 ar
     9    4   25 1
    10    5    6 ar
    11    5   26 1
    12    6    7 1
    13    7    8 1
    14    7   27 1
    15    7   28 1
    16    8    9 2
    17    8   10 2
    18    8   11 1
    19   11   12 2
    20   12   13 1
    21   12   14 1
    22   14   15 2
    23   14   29 1
    24   15   20 1
    25   15   16 1
    26   16   17 1
    27   16   30 1
    28   16   31 1
    29   17   18 1
    30   17   32 1
    31   17   33 1
    32   18   19 1
    33   18   34 1
    34   18   35 1
    35   19   20 1
    36   19   36 1
    37   19   37 1
    38   20   38 1
    39   20   39 1
    40   21   22 3
@<TRIPOS>MOLECULE
ZINC37460640
   30    31     0     0     0
SMALL
USER_CHARGES

@<TRIPOS>ATOM
      1 C1         -0.0178    1.4648    0.0101 C.3       1 <0>         0.0258
      2 N1          0.0021   -0.0041    0.0020 N.3       1 <0>        -0.5443
      3 C2          0.5920   -0.5157   -1.2422 C.3       1 <0>         0.0423
      4 C3          0.4303   -2.0387   -1.2918 C.3       1 <0>         0.1159
      5 N2          0.9912   -2.6085   -0.0572 N.am      1 <0>        -0.6179
      6 C4          0.5491   -2.0510    1.2300 C.3       1 <0>         0.1109
      7 C5          0.7062   -0.5275    1.1802 C.3       1 <0>         0.0408
      8 C6          1.8862   -3.6152   -0.1043 C.2       1 <0>         0.5505
      9 O1          2.2393   -4.0631   -1.1746 O.2       1 <0>        -0.5424
     10 C7          2.4481   -4.1841    1.1730 C.3       1 <0>        -0.1825
     11 H1          1.7613   -4.2084    2.0190 H         1 <0>         0.1239
     12 C8          3.9267   -3.9268    1.4706 C.3       1 <0>        -0.1340
     13 C9          3.4615   -5.3240    1.0529 C.3       1 <0>        -0.1707
     14 H2          3.7218   -5.6625    0.0500 H         1 <0>         0.1046
     15 C10         3.4341   -6.3942    2.1136 C.2       1 <0>         0.5176
     16 O2          3.5907   -7.5631    1.8044 O.co2     1 <0>        -0.6897
     17 O3          3.2552   -6.0910    3.2809 O.co2     1 <0>        -0.6940
     18 H3          1.0047    1.8421    0.0024 H         1 <0>         0.0245
     19 H4         -0.5450    1.8259   -0.8730 H         1 <0>         0.0678
     20 H5         -0.5280    1.8163    0.9069 H         1 <0>         0.0693
     21 H6          0.0842   -0.0681   -2.0965 H         1 <0>         0.0850
     22 H7          1.6514   -0.2612   -1.2740 H         1 <0>         0.0380
     23 H8         -0.6272   -2.2925   -1.3646 H         1 <0>         0.0718
     24 H9          0.9653   -2.4359   -2.1544 H         1 <0>         0.0943
     25 H10        -0.4970   -2.3059    1.3995 H         1 <0>         0.0751
     26 H11         1.1627   -2.4563    2.0346 H         1 <0>         0.0992
     27 H12         1.7640   -0.2728    1.1147 H         1 <0>         0.0405
     28 H13         0.2811   -0.0884    2.0828 H         1 <0>         0.0877
     29 H14         4.4930   -3.3460    0.7425 H         1 <0>         0.0839
     30 H15         4.2126   -3.7822    2.5124 H         1 <0>         0.1061
@<TRIPOS>BOND
     1    1    2 1
     2    1   18 1
     3    1   19 1
     4    1   20 1
     5    2    7 1
     6    2    3 1
     7    3    4 1
     8    3   21 1
     9    3   22 1
    10    4    5 1
    11    4   23 1
    12    4   24 1
    13    5    6 1
    14    5    8 am
    15    6    7 1
    16    6   25 1
    17    6   26 1
    18    7   27 1
    19    7   28 1
    20    8    9 2
    21    8   10 1
    22   10   11 1
    23   10   13 1
    24   10   12 1
    25   12   13 1
    26   12   29 1
    27   12   30 1
    28   13   14 1
    29   13   15 1
    30   15   16 2
    31   15   17 1
@<TRIPOS>MOLECULE
ZINC39066918
   22    22     0     0     0
SMALL
USER_CHARGES

@<TRIPOS>ATOM
      1 C1         -0.0173    1.4248    0.0099 C.3       1 <0>         0.0320
      2 O1          0.0021   -0.0041    0.0020 O.3       1 <0>        -0.3832
      3 C2         -1.2953   -0.6030    0.0112 C.3       1 <0>         0.0717
      4 C3         -1.1538   -2.1264    0.0017 C.3       1 <0>         0.0696
      5 H1         -0.5334   -2.4479   -0.8349 H         1 <0>         0.0664
      6 C4         -2.5467   -2.8035   -0.0601 C.3       1 <0>        -0.1449
      7 C5         -2.2610   -4.1907    0.5651 C.3       1 <0>        -0.1280
      8 C6         -0.9687   -3.9798    1.3777 C.3       1 <0>         0.0056
      9 H2         -0.1727   -4.6078    0.9776 H         1 <0>         0.0583
     10 O2         -0.6035   -2.5937    1.2519 O.3       1 <0>        -0.3376
     11 C7         -1.2121   -4.3213    2.8252 C.2       1 <0>         0.4989
     12 O3         -1.4792   -5.4672    3.1446 O.co2     1 <0>        -0.6975
     13 O4         -1.1420   -3.4516    3.6768 O.co2     1 <0>        -0.6767
     14 H3          1.0053    1.8021    0.0021 H         1 <0>         0.0826
     15 H4         -0.5445    1.7859   -0.8732 H         1 <0>         0.0355
     16 H5         -0.5275    1.7763    0.9067 H         1 <0>         0.0407
     17 H6         -1.8320   -0.2936    0.9080 H         1 <0>         0.0593
     18 H7         -1.8490   -0.2840   -0.8718 H         1 <0>         0.0556
     19 H8         -3.2744   -2.2513    0.5345 H         1 <0>         0.0748
     20 H9         -2.8850   -2.9039   -1.0914 H         1 <0>         0.0735
     21 H10        -3.0791   -4.4897    1.2203 H         1 <0>         0.0774
     22 H11        -2.1039   -4.9357   -0.2149 H         1 <0>         0.0658
@<TRIPOS>BOND
     1    1    2 1
     2    1   14 1
     3    1   15 1
     4    1   16 1
     5    2    3 1
     6    3    4 1
     7    3   17 1
     8    3   18 1
     9    4    5 1
    10    4   10 1
    11    4    6 1
    12    6    7 1
    13    6   19 1
    14    6   20 1
    15    7    8 1
    16    7   21 1
    17    7   22 1
    18    8    9 1
    19    8   10 1
    20    8   11 1
    21   11   12 2
    22   11   13 1
@<TRIPOS>MOLECULE
ZINC50913864
   28    28     0     0     0
SMALL
USER_CHARGES

@<TRIPOS>ATOM
      1 C1         -0.0187    1.5258    0.0104 C.3       1 <0>        -0.1418
      2 C2          0.0021   -0.0041    0.0020 C.3       1 <0>         0.0714
      3 H1          0.5121   -0.3563   -0.8946 H         1 <0>         0.0622
      4 C3         -1.4357   -0.5357    0.0154 C.3       1 <0>         0.0819
      5 N1         -1.3891   -1.9954    0.1960 N.am      1 <0>        -0.6313
      6 C4         -0.5783   -2.5300    1.3016 C.3       1 <0>         0.1009
      7 H2         -0.4987   -3.6131    1.2081 H         1 <0>         0.1043
      8 C5          0.8176   -1.9012    1.2255 C.3       1 <0>         0.0566
      9 O1          0.6913   -0.4787    1.1611 O.3       1 <0>        -0.3783
     10 C6         -1.2321   -2.1750    2.6385 C.3       1 <0>        -0.1523
     11 C7         -2.0692   -2.8183   -0.6266 C.2       1 <0>         0.5149
     12 O2         -2.0182   -4.0187   -0.4615 O.2       1 <0>        -0.4821
     13 C8         -2.8931   -2.2468   -1.7516 C.3       1 <0>        -0.2058
     14 C9         -3.5472   -3.3691   -2.5156 C.2       1 <0>         0.4933
     15 O3         -3.3615   -4.5258   -2.1779 O.co2     1 <0>        -0.6552
     16 O4         -4.2620   -3.1204   -3.4715 O.co2     1 <0>        -0.7065
     17 H3          1.0039    1.9031    0.0027 H         1 <0>         0.0641
     18 H4         -0.5459    1.8868   -0.8726 H         1 <0>         0.0740
     19 H5         -0.5289    1.8773    0.9072 H         1 <0>         0.0641
     20 H6         -1.9874   -0.0814    0.8384 H         1 <0>         0.0694
     21 H7         -1.9238   -0.2981   -0.9298 H         1 <0>         0.0948
     22 H8          1.3896   -2.1761    2.1117 H         1 <0>         0.1014
     23 H9          1.3309   -2.2611    0.3338 H         1 <0>         0.0533
     24 H10        -2.2314   -2.6082    2.6807 H         1 <0>         0.0573
     25 H11        -0.6290   -2.5725    3.4548 H         1 <0>         0.0617
     26 H12        -1.3017   -1.0913    2.7325 H         1 <0>         0.0594
     27 H13        -3.6608   -1.5900   -1.3425 H         1 <0>         0.0845
     28 H14        -2.2482   -1.6785   -2.4219 H         1 <0>         0.0839
@<TRIPOS>BOND
     1    1    2 1
     2    1   17 1
     3    1   18 1
     4    1   19 1
     5    2    3 1
     6    2    9 1
     7    2    4 1
     8    4    5 1
     9    4   20 1
    10    4   21 1
    11    5    6 1
    12    5   11 am
    13    6    7 1
    14    6    8 1
    15    6   10 1
    16    8    9 1
    17    8   22 1
    18    8   23 1
    19   10   24 1
    20   10   25 1
    21   10   26 1
    22   11   12 2
    23   11   13 1
    24   13   14 1
    25   13   27 1
    26   13   28 1
    27   14   15 2
    28   14   16 1
@<TRIPOS>MOLECULE
ZINC54523966
   28    29     0     0     0
SMALL
USER_CHARGES

@<TRIPOS>ATOM
      1 C1         -0.0187    1.5265    0.0104 C.3       1 <0>        -0.1209
      2 C2          1.4294    2.0309   -0.0007 C.3       1 <0>        -0.1309
      3 C3          2.0866    1.6619    1.3299 C.3       1 <0>         0.1162
      4 N1          1.8878    0.2479    1.6223 N.am      1 <0>        -0.5877
      5 C4          0.9474   -0.5080    1.0545 C.2       1 <0>         0.5135
      6 O1          0.8500   -1.6643    1.4073 O.2       1 <0>        -0.5102
      7 C5          0.0021   -0.0041    0.0020 C.3       1 <0>        -0.1304
      8 C6          2.7773   -0.3825    2.6009 C.3       1 <0>         0.1009
      9 H1          3.4875    0.3552    2.9744 H         1 <0>         0.0730
     10 C7          3.5376   -1.5305    1.9339 C.3       1 <0>        -0.1385
     11 C8          3.1970   -2.9548    2.3766 C.3       1 <0>        -0.1467
     12 C9          4.5242   -2.3199    2.7966 C.3       1 <0>        -0.1824
     13 C10         1.9613   -0.9201    3.7482 C.2       1 <0>         0.5003
     14 O2          0.7452   -0.9543    3.6680 O.co2     1 <0>        -0.6690
     15 O3          2.5173   -1.3207    4.7566 O.co2     1 <0>        -0.7044
     16 H2         -0.5241    1.8817    0.9085 H         1 <0>         0.0697
     17 H3         -0.5411    1.8912   -0.8739 H         1 <0>         0.0667
     18 H4          1.9738    1.5616   -0.8201 H         1 <0>         0.0670
     19 H5          1.4385    3.1137   -0.1252 H         1 <0>         0.0758
     20 H6          3.1548    1.8716    1.2744 H         1 <0>         0.0642
     21 H7          1.6461    2.2602    2.1274 H         1 <0>         0.0550
     22 H8         -1.0003   -0.3809    0.2052 H         1 <0>         0.0909
     23 H9          0.3285   -0.3564   -0.9765 H         1 <0>         0.0843
     24 H10         3.7961   -1.3770    0.8861 H         1 <0>         0.0826
     25 H11         2.4313   -3.0741    3.1431 H         1 <0>         0.1071
     26 H12         3.2313   -3.7388    1.6201 H         1 <0>         0.0721
     27 H13         5.4316   -2.6861    2.3164 H         1 <0>         0.0761
     28 H14         4.6315   -2.0214    3.8395 H         1 <0>         0.1057
@<TRIPOS>BOND
     1    1    7 1
     2    1    2 1
     3    1   16 1
     4    1   17 1
     5    2    3 1
     6    2   18 1
     7    2   19 1
     8    3    4 1
     9    3   20 1
    10    3   21 1
    11    4    5 am
    12    4    8 1
    13    5    6 2
    14    5    7 1
    15    7   22 1
    16    7   23 1
    17    8    9 1
    18    8   10 1
    19    8   13 1
    20   10   12 1
    21   10   11 1
    22   10   24 1
    23   11   12 1
    24   11   25 1
    25   11   26 1
    26   12   27 1
    27   12   28 1
    28   13   14 2
    29   13   15 1
@<TRIPOS>MOLECULE
ZINC63087352
   28    28     0     0     0
SMALL
USER_CHARGES

@<TRIPOS>ATOM
      1 C1         -0.0187    1.5258    0.0104 C.3       1 <0>        -0.1595
      2 C2          0.0021   -0.0041    0.0020 C.3       1 <0>         0.1369
      3 H1          0.5123   -0.3556   -0.8948 H         1 <0>         0.1081
      4 C3         -1.4333   -0.5336    0.0129 C.3       1 <0>        -0.0359
      5 C4         -1.4163   -1.9999   -0.1161 C.1       1 <0>         0.2022
      6 N1         -1.4032   -3.1314   -0.2157 N.1       1 <0>        -0.4282
      7 N2          0.7106   -0.4894    1.1889 N.am      1 <0>        -0.6186
      8 C5          0.2181   -0.1495    2.5261 C.3       1 <0>         0.0746
      9 C6          1.8156   -1.2486    1.0506 C.2       1 <0>         0.5532
     10 O1          2.2234   -1.5300   -0.0564 O.2       1 <0>        -0.5398
     11 C7          2.5445   -1.7478    2.2715 C.3       1 <0>        -0.1860
     12 H2          2.5451   -1.0728    3.1274 H         1 <0>         0.1271
     13 C8          2.4984   -3.2503    2.5567 C.3       1 <0>        -0.1380
     14 C9          3.7908   -2.6067    2.0482 C.3       1 <0>        -0.1630
     15 H3          4.0836   -2.8106    1.0183 H         1 <0>         0.1065
     16 C10         4.9251   -2.4551    3.0288 C.2       1 <0>         0.5185
     17 O2          5.6567   -3.4013    3.2655 O.co2     1 <0>        -0.6896
     18 O3          5.1111   -1.3864    3.5854 O.co2     1 <0>        -0.6915
     19 H4          1.0039    1.9031    0.0027 H         1 <0>         0.0680
     20 H5         -0.5459    1.8868   -0.8726 H         1 <0>         0.0711
     21 H6         -0.5289    1.8773    0.9072 H         1 <0>         0.0641
     22 H7         -1.9156   -0.2570    0.9504 H         1 <0>         0.1100
     23 H8         -1.9862   -0.1019   -0.8214 H         1 <0>         0.1187
     24 H9         -0.4859   -0.9122    2.8587 H         1 <0>         0.0533
     25 H10         1.0567   -0.1013    3.2208 H         1 <0>         0.0824
     26 H11        -0.2829    0.8180    2.4937 H         1 <0>         0.0724
     27 H12         2.4690   -3.5638    3.6002 H         1 <0>         0.0973
     28 H13         1.9408   -3.8776    1.8612 H         1 <0>         0.0858
@<TRIPOS>BOND
     1    1    2 1
     2    1   19 1
     3    1   20 1
     4    1   21 1
     5    2    3 1
     6    2    4 1
     7    2    7 1
     8    4    5 1
     9    4   22 1
    10    4   23 1
    11    5    6 3
    12    7    8 1
    13    7    9 am
    14    8   24 1
    15    8   25 1
    16    8   26 1
    17    9   10 2
    18    9   11 1
    19   11   12 1
    20   11   14 1
    21   11   13 1
    22   13   14 1
    23   13   27 1
    24   13   28 1
    25   14   15 1
    26   14   16 1
    27   16   17 2
    28   16   18 1
@<TRIPOS>MOLECULE
ZINC09186530
   77    80     0     0     0
SMALL
USER_CHARGES
2,3-dihydroxy-10,13-dimethyl-17-(1,2,5-trihydroxy-1,5-dimethyl-hexyl)-1,2,3,4,5,9,11,12,16,17-decahydrocyclopenta[a]phenanthren-6-one oxime
@<TRIPOS>ATOM
      1 C1          3.7338    8.3422    3.8137 C.3       1 <0>        -0.1391
      2 C2          2.2935    7.8303    3.7465 C.3       1 <0>        -0.0010
      3 C3          1.6140    8.0057    5.1037 C.3       1 <0>        -0.1458
      4 C4          1.4992    9.5043    5.4266 C.3       1 <0>        -0.1158
      5 C5          0.6047   10.2210    4.4227 C.3       1 <0>        -0.0435
      6 H1         -0.3485    9.6938    4.4632 H         1 <0>         0.0818
      7 C6          1.1288   10.0192    3.0283 C.2       1 <0>        -0.0025
      8 C7          1.2590   10.9947    2.1199 C.2       1 <0>        -0.1653
      9 C8          0.9723   12.3779    2.5410 C.2       1 <0>         0.1745
     10 N1          0.5922   13.2946    1.7035 N.2       1 <0>        -0.3270
     11 O1          0.4399   12.9805    0.3312 O.3       1 <0>        -0.4115
     12 C9          1.1519   12.6551    4.0203 C.3       1 <0>        -0.0138
     13 H2          2.2038   12.5552    4.2877 H         1 <0>         0.0970
     14 C10         0.3081   11.6458    4.7955 C.3       1 <0>        -0.0361
     15 C11         0.4752   11.8876    6.2955 C.3       1 <0>        -0.0978
     16 C12         0.0030   13.3052    6.6305 C.3       1 <0>         0.0741
     17 H3          0.1269   13.4849    7.6985 H         1 <0>         0.0580
     18 C13         0.8291   14.3242    5.8441 C.3       1 <0>         0.0723
     19 H4          1.8796   14.2287    6.1189 H         1 <0>         0.0625
     20 C14         0.6704   14.0703    4.3425 C.3       1 <0>        -0.1016
     21 O2          0.3760   15.6436    6.1536 O.3       1 <0>        -0.5625
     22 O3         -1.3762   13.4415    6.2825 O.3       1 <0>        -0.5444
     23 C15        -1.1592   11.9022    4.4458 C.3       1 <0>        -0.1487
     24 C16         1.5073    8.6254    2.7167 C.2       1 <0>        -0.0890
     25 C17         1.1894    7.8868    1.6802 C.2       1 <0>        -0.1496
     26 C18         1.6373    6.4583    1.8658 C.3       1 <0>        -0.0915
     27 C19         2.2773    6.3796    3.2652 C.3       1 <0>        -0.0976
     28 H5          3.2921    5.9874    3.1998 H         1 <0>         0.0878
     29 C20         1.4255    5.5150    4.1967 C.3       1 <0>         0.1138
     30 C21         1.4177    4.0721    3.6878 C.3       1 <0>        -0.1896
     31 C22         2.0134    5.5546    5.6087 C.3       1 <0>         0.0954
     32 H6          1.5467    6.3613    6.1740 H         1 <0>         0.1358
     33 C23         1.7477    4.2207    6.3094 C.3       1 <0>        -0.1483
     34 C24         2.2241    4.3033    7.7610 C.3       1 <0>        -0.1398
     35 C25         1.9583    2.9694    8.4617 C.3       1 <0>         0.1248
     36 C26         2.7160    1.8539    7.7390 C.3       1 <0>        -0.1413
     37 C27         2.4347    3.0521    9.9133 C.3       1 <0>        -0.1800
     38 O4          0.5575    2.6883    8.4354 O.3       1 <0>        -0.5603
     39 O5          3.4224    5.7799    5.5319 O.3       1 <0>        -0.5455
     40 O6          0.0882    6.0180    4.2232 O.3       1 <0>        -0.5429
     41 H7          4.1854    8.2876    2.8231 H         1 <0>         0.0461
     42 H8          4.3060    7.7272    4.5082 H         1 <0>         0.0710
     43 H9          3.7361    9.3766    4.1575 H         1 <0>         0.0536
     44 H10         0.6091    7.5855    5.0638 H         1 <0>         0.1003
     45 H11         2.1933    7.4897    5.8693 H         1 <0>         0.0966
     46 H12         2.4958    9.9449    5.3980 H         1 <0>         0.0612
     47 H13         1.0834    9.6235    6.4271 H         1 <0>         0.0688
     48 H14         1.5649   10.7743    1.1079 H         1 <0>         0.1294
     49 H15         0.1538   13.7265   -0.2136 H         1 <0>         0.4019
     50 H16         1.5252   11.7795    6.5673 H         1 <0>         0.0815
     51 H17        -0.1223   11.1640    6.8501 H         1 <0>         0.0827
     52 H18         1.2663   14.7936    3.7858 H         1 <0>         0.0760
     53 H19        -0.3789   14.1703    4.0649 H         1 <0>         0.0912
     54 H20         0.4471   15.8745    7.0899 H         1 <0>         0.3780
     55 H21        -1.7451   14.3152    6.4714 H         1 <0>         0.3726
     56 H22        -1.3701   11.5077    3.4519 H         1 <0>         0.0363
     57 H23        -1.7987   11.4071    5.1765 H         1 <0>         0.0588
     58 H24        -1.3540   12.9746    4.4599 H         1 <0>         0.0935
     59 H25         0.6734    8.2545    0.8056 H         1 <0>         0.1224
     60 H26         2.3708    6.1945    1.1039 H         1 <0>         0.0738
     61 H27         0.7808    5.7867    1.8082 H         1 <0>         0.0720
     62 H28         2.4200    3.6519    3.7715 H         1 <0>         0.0656
     63 H29         0.7245    3.4799    4.2852 H         1 <0>         0.0730
     64 H30         1.1031    4.0565    2.6443 H         1 <0>         0.0618
     65 H31         0.6791    4.0063    6.2893 H         1 <0>         0.0802
     66 H32         2.2875    3.4259    5.7945 H         1 <0>         0.0688
     67 H33         3.2926    4.5178    7.7811 H         1 <0>         0.0772
     68 H34         1.6843    5.0981    8.2759 H         1 <0>         0.0627
     69 H35         3.7845    2.0683    7.7590 H         1 <0>         0.0688
     70 H36         2.5267    0.9036    8.2382 H         1 <0>         0.0605
     71 H37         2.3766    1.7950    6.7048 H         1 <0>         0.0635
     72 H38         1.8949    3.8468   10.4282 H         1 <0>         0.0577
     73 H39         2.2454    2.1018   10.4125 H         1 <0>         0.0630
     74 H40         3.5033    3.2665    9.9333 H         1 <0>         0.0656
     75 H41         0.0141    3.3555    8.8765 H         1 <0>         0.3750
     76 H42         3.8993    5.1161    5.0151 H         1 <0>         0.3700
     77 H43        -0.4245    5.8141    3.4291 H         1 <0>         0.3729
@<TRIPOS>BOND
     1    1    2 1
     2    1   41 1
     3    1   42 1
     4    1   43 1
     5    2   24 1
     6    2   27 1
     7    2    3 1
     8    3    4 1
     9    3   44 1
    10    3   45 1
    11    4    5 1
    12    4   46 1
    13    4   47 1
    14    5    6 1
    15    5   14 1
    16    5    7 1
    17    7    8 2
    18    7   24 1
    19    8    9 1
    20    8   48 1
    21    9   10 2
    22    9   12 1
    23   10   11 1
    24   11   49 1
    25   12   13 1
    26   12   20 1
    27   12   14 1
    28   14   15 1
    29   14   23 1
    30   15   16 1
    31   15   50 1
    32   15   51 1
    33   16   17 1
    34   16   18 1
    35   16   22 1
    36   18   19 1
    37   18   20 1
    38   18   21 1
    39   20   52 1
    40   20   53 1
    41   21   54 1
    42   22   55 1
    43   23   56 1
    44   23   57 1
    45   23   58 1
    46   24   25 2
    47   25   26 1
    48   25   59 1
    49   26   27 1
    50   26   60 1
    51   26   61 1
    52   27   28 1
    53   27   29 1
    54   29   30 1
    55   29   31 1
    56   29   40 1
    57   30   62 1
    58   30   63 1
    59   30   64 1
    60   31   32 1
    61   31   33 1
    62   31   39 1
    63   33   34 1
    64   33   65 1
    65   33   66 1
    66   34   35 1
    67   34   67 1
    68   34   68 1
    69   35   36 1
    70   35   37 1
    71   35   38 1
    72   36   69 1
    73   36   70 1
    74   36   71 1
    75   37   72 1
    76   37   73 1
    77   37   74 1
    78   38   75 1
    79   39   76 1
    80   40   77 1
@<TRIPOS>MOLECULE
ZINC29129566
   45    48     0     0     0
SMALL
USER_CHARGES
1-[4-(3-amino-1H-pyrazolo[3,4-b]pyridin-4-yl)phenyl]-3-[3-(trifluoromethyl)phenyl]urea
@<TRIPOS>ATOM
      1 C1          0.5014    2.6125   -2.8807 C.ar      1 <0>        -0.0993
      2 C2         -0.3647    1.6494   -2.3956 C.ar      1 <0>        -0.0873
      3 C3         -1.1648    1.9229   -1.3017 C.ar      1 <0>        -0.1636
      4 C4         -1.0931    3.1558   -0.6827 C.ar      1 <0>        -0.0981
      5 C5         -0.2247    4.1247   -1.1673 C.ar      1 <0>         0.1670
      6 C6          0.5736    3.8488   -2.2699 C.ar      1 <0>        -0.0896
      7 N1         -0.1535    5.3765   -0.5458 N.am      1 <0>        -0.6937
      8 C7          1.0253    6.0255   -0.4706 C.2       1 <0>         0.7095
      9 O1          2.0094    5.5637   -1.0153 O.2       1 <0>        -0.5579
     10 N2          1.1133    7.1863    0.2085 N.am      1 <0>        -0.6930
     11 C8          2.3099    7.9081    0.2062 C.ar      1 <0>         0.1751
     12 C9          3.5262    7.2349    0.1994 C.ar      1 <0>        -0.1168
     13 C10         4.7077    7.9442    0.1913 C.ar      1 <0>        -0.0991
     14 C11         4.6824    9.3393    0.2016 C.ar      1 <0>        -0.0706
     15 C12         3.4601   10.0124    0.2142 C.ar      1 <0>        -0.0753
     16 C13         2.2817    9.2980    0.2164 C.ar      1 <0>        -0.1378
     17 C14         5.9503   10.1042    0.1987 C.ar      1 <0>         0.0831
     18 C15         6.1667   11.1357   -0.7140 C.ar      1 <0>        -0.2208
     19 C16         7.3630   11.8310   -0.6799 C.ar      1 <0>         0.1776
     20 N3          8.3101   11.5364    0.1853 N.ar      1 <0>        -0.5141
     21 C17         8.1689   10.5618    1.0765 C.ar      1 <0>         0.3306
     22 C18         6.9798    9.8096    1.1142 C.ar      1 <0>        -0.2399
     23 C19         7.1394    8.8334    2.1889 C.2       1 <0>         0.3760
     24 N4          8.3214    9.0180    2.7160 N.2       1 <0>        -0.3064
     25 N5          8.9781   10.0651    2.0621 N.pl3     1 <0>        -0.5017
     26 H1          9.9749   10.5002    2.2267 H         1 <0>         0.4748
     27 N6          6.2000    7.8763    2.5817 N.pl3     1 <0>        -0.8597
     28 C20        -2.1115    0.8728   -0.7803 C.3       1 <0>         0.5098
     29 F1         -2.0012   -0.2833   -1.5604 F         1 <0>        -0.1749
     30 F2         -1.7890    0.5720    0.5474 F         1 <0>        -0.1758
     31 F3         -3.4234    1.3547   -0.8437 F         1 <0>        -0.1761
     32 H2          1.1215    2.3974   -3.7383 H         1 <0>         0.1400
     33 H3         -0.4194    0.6832   -2.8751 H         1 <0>         0.1407
     34 H4         -1.7148    3.3671    0.1747 H         1 <0>         0.1369
     35 H5          1.2498    4.6006   -2.6493 H         1 <0>         0.1500
     36 H6         -1.0597    5.8308   -0.1186 H         1 <0>         0.4353
     37 H7          0.2432    7.5655    0.7645 H         1 <0>         0.4345
     38 H8          3.5452    6.1551    0.1962 H         1 <0>         0.1475
     39 H9          5.6523    7.4208    0.1816 H         1 <0>         0.1349
     40 H10         3.4377   11.0921    0.2218 H         1 <0>         0.1341
     41 H11         1.3354    9.8184    0.2258 H         1 <0>         0.1329
     42 H12         5.4067   11.3930   -1.4369 H         1 <0>         0.1415
     43 H13         7.5257   12.6326   -1.3851 H         1 <0>         0.1665
     44 H14         6.4286    7.1884    3.4091 H         1 <0>         0.4245
     45 H15         5.2319    7.8108    2.0635 H         1 <0>         0.4285
@<TRIPOS>BOND
     1    1    6 ar
     2    1    2 ar
     3    1   32 1
     4    2    3 ar
     5    2   33 1
     6    3    4 ar
     7    3   28 1
     8    4    5 ar
     9    4   34 1
    10    5    6 ar
    11    5    7 1
    12    6   35 1
    13    7    8 am
    14    7   36 1
    15    8    9 2
    16    8   10 am
    17   10   11 1
    18   10   37 1
    19   11   16 ar
    20   11   12 ar
    21   12   13 ar
    22   12   38 1
    23   13   14 ar
    24   13   39 1
    25   14   15 ar
    26   14   17 1
    27   15   16 ar
    28   15   40 1
    29   16   41 1
    30   17   22 ar
    31   17   18 ar
    32   18   19 ar
    33   18   42 1
    34   19   20 ar
    35   19   43 1
    36   20   21 ar
    37   21   25 1
    38   21   22 ar
    39   22   23 1
    40   23   24 2
    41   23   27 1
    42   24   25 1
    43   25   26 1
    44   27   44 1
    45   27   45 1
    46   28   29 1
    47   28   30 1
    48   28   31 1
@<TRIPOS>MOLECULE
ZINC39007345
   55    58     0     0     0
SMALL
USER_CHARGES

@<TRIPOS>ATOM
      1 C1         -1.5122   -2.3648   -2.2481 C.3       1 <0>        -0.1150
      2 C2         -0.7065   -1.8571   -1.0801 C.ar      1 <0>        -0.0626
      3 C3          0.0249   -0.6898   -1.2009 C.ar      1 <0>        -0.1348
      4 C4          0.7652   -0.2204   -0.1314 C.ar      1 <0>        -0.0617
      5 C5          0.7761   -0.9166    1.0614 C.ar      1 <0>        -0.1265
      6 C6          0.0426   -2.0893    1.1859 C.ar      1 <0>         0.1525
      7 C7         -0.7039   -2.5552    0.1116 C.ar      1 <0>        -0.1512
      8 N1          0.0520   -2.7973    2.3928 N.am      1 <0>        -0.6678
      9 C8          0.1502   -2.1344    3.5622 C.2       1 <0>         0.5338
     10 O1          0.1340   -0.9217    3.5751 O.2       1 <0>        -0.4974
     11 C9          0.2800   -2.9001    4.8537 C.3       1 <0>        -0.1352
     12 S1          0.3909   -1.7344    6.2391 S.3       1 <0>        -0.0972
     13 C10         0.5406   -2.8007    7.6989 C.3       1 <0>         0.1992
     14 H1          0.6280   -2.2017    8.6054 H         1 <0>         0.1289
     15 N2          1.6999   -3.7208    7.5621 N.3       1 <0>        -0.4685
     16 N3          1.3761   -4.8514    8.4363 N.3       1 <0>        -0.5133
     17 C11        -0.0933   -4.8714    8.5842 C.3       1 <0>         0.2361
     18 H2         -0.3649   -4.7493    9.6327 H         1 <0>         0.0875
     19 N4         -0.6154   -3.7313    7.7921 N.3       1 <0>        -0.3742
     20 N5         -1.7409   -3.0989    8.4610 N.3       1 <0>        -0.6913
     21 C12        -0.6564   -6.1888    8.0471 C.3       1 <0>        -0.0100
     22 H3         -1.7460   -6.1635    8.0348 H         1 <0>         0.1484
     23 C13        -0.1567   -7.3614    8.8721 C.2       1 <0>        -0.1404
     24 C14         0.5357   -8.1058    7.9884 C.2       1 <0>         0.0192
     25 N6          0.5093   -7.5286    6.7585 N.2       1 <0>        -0.1519
     26 N7         -0.1277   -6.4702    6.7022 N.2       1 <0>        -0.1291
     27 C15         1.2298   -9.3765    8.3124 C.ar      1 <0>        -0.0250
     28 C16         1.1892   -9.8842    9.6096 C.ar      1 <0>        -0.0902
     29 C17         1.8363  -11.0664    9.9059 C.ar      1 <0>        -0.1099
     30 C18         2.5255  -11.7477    8.9171 C.ar      1 <0>        -0.0265
     31 C19         2.5687  -11.2474    7.6269 C.ar      1 <0>        -0.1102
     32 C20         1.9196  -10.0693    7.3192 C.ar      1 <0>        -0.0743
     33 Cl1         3.3385  -13.2339    9.2964 Cl        1 <0>        -0.0640
     34 C21         1.5612    1.0520   -0.2675 C.3       1 <0>        -0.1153
     35 H4         -2.5159   -1.9417   -2.2084 H         1 <0>         0.0720
     36 H5         -1.0292   -2.0679   -3.1791 H         1 <0>         0.0687
     37 H6         -1.5741   -3.4520   -2.2016 H         1 <0>         0.0670
     38 H7          0.0183   -0.1437   -2.1327 H         1 <0>         0.1236
     39 H8          1.3547   -0.5497    1.8962 H         1 <0>         0.1340
     40 H9         -1.2786   -3.4646    0.2066 H         1 <0>         0.1249
     41 H10        -0.0122   -3.7651    2.3878 H         1 <0>         0.4139
     42 H11        -0.5924   -3.5399    4.9861 H         1 <0>         0.1250
     43 H12         1.1798   -3.5145    4.8229 H         1 <0>         0.1149
     44 H13         1.8107   -4.0232    6.6059 H         1 <0>         0.3621
     45 H14         1.8285   -4.7562    9.3331 H         1 <0>         0.3700
     46 H15        -2.0426   -2.2759    7.9613 H         1 <0>         0.3689
     47 H16        -2.5030   -3.7494    8.5799 H         1 <0>         0.3586
     48 H17        -0.3183   -7.5536    9.9225 H         1 <0>         0.1716
     49 H18         0.6525   -9.3531   10.3818 H         1 <0>         0.1327
     50 H19         1.8055  -11.4607   10.9109 H         1 <0>         0.1386
     51 H20         3.1079  -11.7823    6.8591 H         1 <0>         0.1392
     52 H21         1.9498   -9.6823    6.3113 H         1 <0>         0.1436
     53 H22         0.9421    1.9007    0.0230 H         1 <0>         0.0731
     54 H23         2.4375    1.0032    0.3789 H         1 <0>         0.0674
     55 H24         1.8797    1.1722   -1.3030 H         1 <0>         0.0681
@<TRIPOS>BOND
     1    1    2 1
     2    1   35 1
     3    1   36 1
     4    1   37 1
     5    2    7 ar
     6    2    3 ar
     7    3    4 ar
     8    3   38 1
     9    4    5 ar
    10    4   34 1
    11    5    6 ar
    12    5   39 1
    13    6    7 ar
    14    6    8 1
    15    7   40 1
    16    8    9 am
    17    8   41 1
    18    9   10 2
    19    9   11 1
    20   11   12 1
    21   11   42 1
    22   11   43 1
    23   12   13 1
    24   13   14 1
    25   13   19 1
    26   13   15 1
    27   15   16 1
    28   15   44 1
    29   16   17 1
    30   16   45 1
    31   17   18 1
    32   17   19 1
    33   17   21 1
    34   19   20 1
    35   20   46 1
    36   20   47 1
    37   21   22 1
    38   21   26 1
    39   21   23 1
    40   23   24 2
    41   23   48 1
    42   24   25 1
    43   24   27 1
    44   25   26 2
    45   27   32 ar
    46   27   28 ar
    47   28   29 ar
    48   28   49 1
    49   29   30 ar
    50   29   50 1
    51   30   31 ar
    52   30   33 1
    53   31   32 ar
    54   31   51 1
    55   32   52 1
    56   34   53 1
    57   34   54 1
    58   34   55 1
@<TRIPOS>MOLECULE
ZINC40703767
   43    45     0     0     0
SMALL
USER_CHARGES

@<TRIPOS>ATOM
      1 C1          0.0126    1.5031    0.0115 C.3       1 <0>        -0.1183
      2 C2          0.0246   -0.0038    0.0024 C.ar      1 <0>        -0.0952
      3 C3          0.7720   -0.6936    0.9394 C.ar      1 <0>        -0.0873
      4 C4          0.7854   -2.0744    0.9339 C.ar      1 <0>        -0.1065
      5 C5          0.0465   -2.7715   -0.0140 C.ar      1 <0>         0.1735
      6 C6         -0.7038   -2.0768   -0.9538 C.ar      1 <0>        -0.1442
      7 C7         -0.7169   -0.6945   -0.9401 C.ar      1 <0>        -0.0156
      8 Cl1        -1.6589    0.1756   -2.1103 Cl        1 <0>        -0.0653
      9 N1          0.0586   -4.1689   -0.0221 N.pl3     1 <0>        -0.6520
     10 C8          0.1791   -4.8700    1.1726 C.ar      1 <0>         0.3967
     11 C9          0.3091   -6.2601    1.1689 C.ar      1 <0>         0.0179
     12 C10         0.4272   -6.9144    2.3964 C.ar      1 <0>         0.4044
     13 N2          0.4115   -6.1937    3.5152 N.ar      1 <0>        -0.5749
     14 C11         0.2869   -4.8825    3.4745 C.ar      1 <0>         0.3316
     15 N3          0.1779   -4.2259    2.3374 N.ar      1 <0>        -0.5558
     16 N4          0.5586   -8.2969    2.4493 N.pl3     1 <0>        -0.5108
     17 N5          0.6764   -8.9425    3.6872 N.am      1 <0>        -0.5039
     18 C12         0.8039  -10.2832    3.7385 C.2       1 <0>         0.5594
     19 O1          0.8167  -10.9323    2.7108 O.2       1 <0>        -0.5368
     20 C13         0.9282  -10.9642    5.0442 C.ar      1 <0>        -0.1255
     21 C14         0.9081  -10.2218    6.2265 C.ar      1 <0>        -0.0719
     22 C15         1.0245  -10.8628    7.4418 C.ar      1 <0>        -0.1149
     23 C16         1.1611  -12.2403    7.4912 C.ar      1 <0>        -0.0076
     24 C17         1.1822  -12.9821    6.3216 C.ar      1 <0>        -0.1163
     25 C18         1.0604  -12.3529    5.1006 C.ar      1 <0>        -0.0412
     26 Cl2         1.3071  -13.0402    9.0250 Cl        1 <0>        -0.0554
     27 N6          0.3202   -6.9803   -0.0365 N.pl3     1 <0>        -0.8742
     28 H1         -0.7943    1.8561    0.6538 H         1 <0>         0.0744
     29 H2          0.9660    1.8717    0.3900 H         1 <0>         0.0704
     30 H3         -0.1427    1.8714   -1.0025 H         1 <0>         0.0719
     31 H4          1.3464   -0.1517    1.6761 H         1 <0>         0.1346
     32 H5          1.3700   -2.6121    1.6657 H         1 <0>         0.1434
     33 H6         -1.2792   -2.6157   -1.6919 H         1 <0>         0.1326
     34 H7         -0.0171   -4.6498   -0.8611 H         1 <0>         0.4153
     35 H8          0.2780   -4.3287    4.4017 H         1 <0>         0.2017
     36 H9          0.5688   -8.8149    1.6293 H         1 <0>         0.4388
     37 H10         0.6662   -8.4245    4.5072 H         1 <0>         0.4337
     38 H11         0.8020   -9.1477    6.1892 H         1 <0>         0.1384
     39 H12         1.0094  -10.2896    8.3571 H         1 <0>         0.1446
     40 H13         1.2893  -14.0558    6.3663 H         1 <0>         0.1450
     41 H14         1.0716  -12.9328    4.1895 H         1 <0>         0.1489
     42 H15         0.2369   -6.5121   -0.8820 H         1 <0>         0.3979
     43 H16         0.4112   -7.9459   -0.0237 H         1 <0>         0.3983
@<TRIPOS>BOND
     1    1    2 1
     2    1   28 1
     3    1   29 1
     4    1   30 1
     5    2    7 ar
     6    2    3 ar
     7    3    4 ar
     8    3   31 1
     9    4    5 ar
    10    4   32 1
    11    5    6 ar
    12    5    9 1
    13    6    7 ar
    14    6   33 1
    15    7    8 1
    16    9   10 1
    17    9   34 1
    18   10   15 ar
    19   10   11 ar
    20   11   12 ar
    21   11   27 1
    22   12   13 ar
    23   12   16 1
    24   13   14 ar
    25   14   15 ar
    26   14   35 1
    27   16   17 1
    28   16   36 1
    29   17   18 am
    30   17   37 1
    31   18   19 2
    32   18   20 1
    33   20   25 ar
    34   20   21 ar
    35   21   22 ar
    36   21   38 1
    37   22   23 ar
    38   22   39 1
    39   23   24 ar
    40   23   26 1
    41   24   25 ar
    42   24   40 1
    43   25   41 1
    44   27   42 1
    45   27   43 1
@<TRIPOS>MOLECULE
ZINC60385387
   45    47     0     0     0
SMALL
USER_CHARGES

@<TRIPOS>ATOM
      1 C1         -0.0187    1.5258    0.0104 C.3       1 <0>        -0.1515
      2 C2          0.0021   -0.0041    0.0020 C.3       1 <0>         0.0577
      3 O1         -1.3386   -0.4987    0.0122 O.3       1 <0>        -0.3399
      4 C3         -1.4972   -1.8384    0.0065 C.2       1 <0>         0.5335
      5 O2         -0.5224   -2.5663   -0.0067 O.2       1 <0>        -0.4903
      6 C4         -2.8407   -2.4157    0.0162 C.2       1 <0>        -0.2075
      7 C5         -3.5524   -2.7158   -1.2149 C.2       1 <0>         0.0060
      8 C6         -4.7936   -3.2497   -1.0545 C.2       1 <0>        -0.2227
      9 S1         -4.9765   -3.3364    0.7130 S.3       1 <0>         0.3373
     10 C7         -3.4988   -2.7101    1.1998 C.2       1 <0>         0.0472
     11 N1         -3.0398   -2.5266    2.4944 N.am      1 <0>        -0.6146
     12 C8         -3.8173   -2.8709    3.5401 C.2       1 <0>         0.5329
     13 O3         -4.9185   -3.3412    3.3481 O.2       1 <0>        -0.4773
     14 C9         -3.3181   -2.6713    4.9480 C.3       1 <0>        -0.1508
     15 S2         -4.5840   -3.2264    6.1227 S.3       1 <0>         0.0963
     16 C10        -3.8590   -2.9317    7.7014 C.ar      1 <0>         0.3664
     17 N2         -2.6446   -2.4056    7.7657 N.ar      1 <0>        -0.6224
     18 C11        -2.0659   -2.1688    8.9407 C.ar      1 <0>         0.4773
     19 C12        -2.7534   -2.4814   10.1098 C.ar      1 <0>        -0.3692
     20 C13        -4.0269   -3.0327   10.0025 C.ar      1 <0>         0.4790
     21 N3         -4.5446   -3.2371    8.7934 N.ar      1 <0>        -0.5878
     22 N4         -4.7485   -3.3601   11.1399 N.pl3     1 <0>        -0.8339
     23 N5         -0.7949   -1.6185    8.9992 N.pl3     1 <0>        -0.8363
     24 C14        -2.9694   -2.4588   -2.5470 C.2       1 <0>         0.0286
     25 C15        -2.9130   -3.3441   -3.5781 C.2       1 <0>        -0.1775
     26 C16        -2.2790   -2.6808   -4.6487 C.2       1 <0>        -0.2115
     27 C17        -1.9831   -1.4378   -4.2231 C.2       1 <0>        -0.0328
     28 O4         -2.4062   -1.3051   -2.9541 O.3       1 <0>        -0.1667
     29 H1          1.0039    1.9031    0.0027 H         1 <0>         0.0807
     30 H2         -0.5459    1.8868   -0.8726 H         1 <0>         0.0684
     31 H3         -0.5289    1.8773    0.9072 H         1 <0>         0.0665
     32 H4          0.5123   -0.3556   -0.8948 H         1 <0>         0.0683
     33 H5          0.5293   -0.3651    0.8851 H         1 <0>         0.0669
     34 H6         -5.4980   -3.5489   -1.8166 H         1 <0>         0.1998
     35 H7         -2.1590   -2.1504    2.6479 H         1 <0>         0.4229
     36 H8         -2.4065   -3.2503    5.0957 H         1 <0>         0.1332
     37 H9         -3.1081   -1.6145    5.1126 H         1 <0>         0.1334
     38 H10        -2.3090   -2.3008   11.0774 H         1 <0>         0.1374
     39 H11        -4.3665   -3.2054   12.0179 H         1 <0>         0.4126
     40 H12        -5.6355   -3.7440   11.0577 H         1 <0>         0.4095
     41 H13        -0.3214   -1.4034    8.1804 H         1 <0>         0.4067
     42 H14        -0.3791   -1.4486    9.8589 H         1 <0>         0.4123
     43 H15        -3.2821   -4.3591   -3.5769 H         1 <0>         0.1533
     44 H16        -2.0696   -3.0920   -5.6252 H         1 <0>         0.1531
     45 H17        -1.4909   -0.6732   -4.8059 H         1 <0>         0.2053
@<TRIPOS>BOND
     1    1    2 1
     2    1   29 1
     3    1   30 1
     4    1   31 1
     5    2    3 1
     6    2   32 1
     7    2   33 1
     8    3    4 1
     9    4    5 2
    10    4    6 1
    11    6   10 2
    12    6    7 1
    13    7    8 2
    14    7   24 1
    15    8    9 1
    16    8   34 1
    17    9   10 1
    18   10   11 1
    19   11   12 am
    20   11   35 1
    21   12   13 2
    22   12   14 1
    23   14   15 1
    24   14   36 1
    25   14   37 1
    26   15   16 1
    27   16   21 ar
    28   16   17 ar
    29   17   18 ar
    30   18   19 ar
    31   18   23 1
    32   19   20 ar
    33   19   38 1
    34   20   21 ar
    35   20   22 1
    36   22   39 1
    37   22   40 1
    38   23   41 1
    39   23   42 1
    40   24   28 1
    41   24   25 2
    42   25   26 1
    43   25   43 1
    44   26   27 2
    45   26   44 1
    46   27   28 1
    47   27   45 1
@<TRIPOS>MOLECULE
ZINC21227751
   57    59     0     0     0
SMALL
USER_CHARGES
4-[[(2S)-2-[[4-amino-5-(4-tert-butylphenyl)-1,2,4-triazol-3-yl]sulfanyl]propanoyl]amino]benzamide
@<TRIPOS>ATOM
      1 C1         -3.2999    3.7345   -1.2083 C.3       1 <0>        -0.1512
      2 C2         -3.6179    3.1955    0.1878 C.3       1 <0>        -0.1094
      3 H1         -3.3904    4.0260    0.8723 H         1 <0>         0.1291
      4 C3         -5.1068    3.0090    0.3271 C.2       1 <0>         0.5353
      5 O1         -5.5943    1.9058    0.2002 O.2       1 <0>        -0.5046
      6 N1         -5.8967    4.0682    0.5929 N.am      1 <0>        -0.6787
      7 C4         -7.2827    3.9168    0.6130 C.ar      1 <0>         0.1797
      8 C5         -7.8947    3.0130   -0.2498 C.ar      1 <0>        -0.1326
      9 C6         -9.2625    2.8575   -0.2291 C.ar      1 <0>        -0.0639
     10 C7        -10.0372    3.6164    0.6523 C.ar      1 <0>        -0.1551
     11 C8         -9.4197    4.5271    1.5138 C.ar      1 <0>        -0.0378
     12 C9         -8.0510    4.6739    1.4917 C.ar      1 <0>        -0.1524
     13 C10       -11.5042    3.4560    0.6736 C.2       1 <0>         0.5646
     14 O2        -12.1769    4.1167    1.4412 O.2       1 <0>        -0.5498
     15 N2        -12.0982    2.5773   -0.1580 N.am      1 <0>        -0.8742
     16 S1         -2.7859    1.6056    0.4247 S.3       1 <0>         0.0933
     17 C11        -1.1043    2.1282    0.3636 C.2       1 <0>         0.1169
     18 N3         -0.6760    3.3590    0.1921 N.2       1 <0>        -0.2759
     19 N4          0.6089    3.3832    0.1927 N.2       1 <0>        -0.2553
     20 C12         1.0798    2.1708    0.3700 C.2       1 <0>         0.2019
     21 N5         -0.0030    1.3303    0.4884 N.pl3     1 <0>        -0.2062
     22 N6          0.0189   -0.0214    0.6840 N.3       1 <0>        -0.7663
     23 C13         2.5048    1.7818    0.4301 C.ar      1 <0>        -0.0141
     24 C14         2.8695    0.5319    0.9331 C.ar      1 <0>        -0.1136
     25 C15         4.2007    0.1732    0.9820 C.ar      1 <0>        -0.1128
     26 C16         5.1740    1.0533    0.5434 C.ar      1 <0>        -0.0546
     27 C17         4.8197    2.2960    0.0490 C.ar      1 <0>        -0.1069
     28 C18         3.4917    2.6650   -0.0103 C.ar      1 <0>        -0.0719
     29 C19         6.6266    0.6567    0.6047 C.3       1 <0>        -0.0318
     30 C20         7.3870    1.6416    1.4952 C.3       1 <0>        -0.1425
     31 C21         6.7462   -0.7535    1.1861 C.3       1 <0>        -0.1487
     32 C22         7.2215    0.6795   -0.8047 C.3       1 <0>        -0.1422
     33 H2         -2.2131    3.8706   -1.3100 H         1 <0>         0.0957
     34 H3         -3.8055    4.7007   -1.3522 H         1 <0>         0.0743
     35 H4         -3.6524    3.0196   -1.9664 H         1 <0>         0.0703
     36 H5         -5.4480    5.0522    0.7940 H         1 <0>         0.4426
     37 H6         -7.2958    2.4298   -0.9336 H         1 <0>         0.1402
     38 H7         -9.7366    2.1528   -0.8963 H         1 <0>         0.1300
     39 H8        -10.0155    5.1148    2.1965 H         1 <0>         0.1412
     40 H9         -7.5731    5.3772    2.1576 H         1 <0>         0.1355
     41 H10       -13.1916    2.4578   -0.1421 H         1 <0>         0.4267
     42 H11       -11.4896    1.9797   -0.8526 H         1 <0>         0.4180
     43 H12         0.9802   -0.5494    0.7686 H         1 <0>         0.4448
     44 H13        -0.9248   -0.5819    0.7569 H         1 <0>         0.4446
     45 H14         2.1110   -0.1544    1.2796 H         1 <0>         0.1213
     46 H15         4.4840   -0.7952    1.3672 H         1 <0>         0.1357
     47 H16         5.5843    2.9785   -0.2915 H         1 <0>         0.1319
     48 H17         3.2164    3.6354   -0.3964 H         1 <0>         0.1387
     49 H18         8.4473    1.3521    1.5400 H         1 <0>         0.0619
     50 H19         6.9593    1.6252    2.5085 H         1 <0>         0.0580
     51 H20         7.3010    2.6555    1.0773 H         1 <0>         0.0595
     52 H21         7.8065   -1.0429    1.2308 H         1 <0>         0.0619
     53 H22         6.1995   -1.4616    0.5460 H         1 <0>         0.0599
     54 H23         6.3186   -0.7698    2.1995 H         1 <0>         0.0601
     55 H24         8.2818    0.3900   -0.7599 H         1 <0>         0.0619
     56 H25         7.1356    1.6934   -1.2226 H         1 <0>         0.0594
     57 H26         6.6748   -0.0285   -1.4449 H         1 <0>         0.0577
@<TRIPOS>BOND
     1    1    2 1
     2    1   33 1
     3    1   34 1
     4    1   35 1
     5    2    3 1
     6    2    4 1
     7    2   16 1
     8    4    5 2
     9    4    6 am
    10    6    7 1
    11    6   36 1
    12    7   12 ar
    13    7    8 ar
    14    8    9 ar
    15    8   37 1
    16    9   10 ar
    17    9   38 1
    18   10   11 ar
    19   10   13 1
    20   11   12 ar
    21   11   39 1
    22   12   40 1
    23   13   14 2
    24   13   15 am
    25   15   41 1
    26   15   42 1
    27   16   17 1
    28   17   21 1
    29   17   18 2
    30   18   19 1
    31   19   20 2
    32   20   21 1
    33   20   23 1
    34   21   22 1
    35   22   43 1
    36   22   44 1
    37   23   28 ar
    38   23   24 ar
    39   24   25 ar
    40   24   45 1
    41   25   26 ar
    42   25   46 1
    43   26   27 ar
    44   26   29 1
    45   27   28 ar
    46   27   47 1
    47   28   48 1
    48   29   30 1
    49   29   31 1
    50   29   32 1
    51   30   49 1
    52   30   50 1
    53   30   51 1
    54   31   52 1
    55   31   53 1
    56   31   54 1
    57   32   55 1
    58   32   56 1
    59   32   57 1
@<TRIPOS>MOLECULE
ZINC07007731
   38    39     0     0     0
SMALL
USER_CHARGES

@<TRIPOS>ATOM
      1 C1         -1.2653    1.1831    0.1820 C.3       1 <0>        -0.1178
      2 C2         -0.5844   -0.1578    0.0846 C.ar      1 <0>        -0.1015
      3 C3         -0.5697   -0.8400   -1.1164 C.ar      1 <0>        -0.0738
      4 C4          0.0548   -2.0712   -1.2063 C.ar      1 <0>        -0.0985
      5 C5          0.6662   -2.6227   -0.0941 C.ar      1 <0>        -0.0778
      6 C6          0.6548   -1.9448    1.1089 C.ar      1 <0>        -0.1101
      7 C7          0.0336   -0.7060    1.2006 C.ar      1 <0>         0.1548
      8 N1          0.0256   -0.0140    2.4172 N.am      1 <0>        -0.6656
      9 C8         -0.0559   -0.6935    3.5783 C.2       1 <0>         0.5119
     10 O1         -0.0400   -1.9062    3.5737 O.2       1 <0>        -0.5119
     11 C9         -0.1667    0.0537    4.8823 C.3       1 <0>         0.1032
     12 N2         -0.2404   -0.9035    5.9889 N.am      1 <0>        -0.7146
     13 C10        -0.3446   -0.4604    7.2574 C.2       1 <0>         0.5424
     14 O2         -0.3773    0.7308    7.4829 O.2       1 <0>        -0.5174
     15 C11        -0.4204   -1.4451    8.3957 C.3       1 <0>        -0.1610
     16 S1         -0.5538   -0.5457    9.9654 S.3       1 <0>         0.1097
     17 C12        -0.6319   -1.8189   11.1809 C.2       1 <0>         0.2207
     18 N3         -0.7369   -1.6282   12.5011 N.2       1 <0>        -0.5573
     19 H1         -0.6850   -4.7176   12.3321 H         1 <0>         0.4384
     20 C13        -0.7701   -2.7919   13.1149 C.2       1 <0>         0.5469
     21 N4         -0.6854   -3.7598   12.1786 N.pl3     1 <0>        -0.5105
     22 N5         -0.6023   -3.1073   10.9380 N.2       1 <0>        -0.3310
     23 N6         -0.8731   -2.9881   14.4800 N.pl3     1 <0>        -0.8221
     24 Br1         0.0723   -3.0024   -2.8520 Br        1 <0>        -0.0472
     25 H2         -0.5503    1.9716   -0.0529 H         1 <0>         0.0772
     26 H3         -2.0942    1.2219   -0.5248 H         1 <0>         0.0765
     27 H4         -1.6439    1.3257    1.1941 H         1 <0>         0.0678
     28 H5         -1.0464   -0.4120   -1.9858 H         1 <0>         0.1382
     29 H6          1.1523   -3.5843   -0.1669 H         1 <0>         0.1373
     30 H7          1.1318   -2.3758    1.9767 H         1 <0>         0.1489
     31 H8          0.0787    0.9545    2.4246 H         1 <0>         0.4175
     32 H9          0.7079    0.6914    5.0112 H         1 <0>         0.1092
     33 H10        -1.0666    0.6687    4.8734 H         1 <0>         0.1093
     34 H11        -0.2142   -1.8562    5.8085 H         1 <0>         0.4162
     35 H12        -1.2950   -2.0827    8.2669 H         1 <0>         0.1252
     36 H13         0.4795   -2.0601    8.4047 H         1 <0>         0.1252
     37 H14        -0.9287   -2.2255   15.0768 H         1 <0>         0.4273
     38 H15        -0.8897   -3.8885   14.8406 H         1 <0>         0.4146
@<TRIPOS>BOND
     1    1    2 1
     2    1   25 1
     3    1   26 1
     4    1   27 1
     5    2    7 ar
     6    2    3 ar
     7    3    4 ar
     8    3   28 1
     9    4    5 ar
    10    4   24 1
    11    5    6 ar
    12    5   29 1
    13    6    7 ar
    14    6   30 1
    15    7    8 1
    16    8    9 am
    17    8   31 1
    18    9   10 2
    19    9   11 1
    20   11   12 1
    21   11   32 1
    22   11   33 1
    23   12   13 am
    24   12   34 1
    25   13   14 2
    26   13   15 1
    27   15   16 1
    28   15   35 1
    29   15   36 1
    30   16   17 1
    31   17   18 1
    32   17   22 2
    33   18   20 2
    34   19   21 1
    35   20   23 1
    36   20   21 1
    37   21   22 1
    38   23   37 1
    39   23   38 1
@<TRIPOS>MOLECULE
ZINC39016227
   55    58     0     0     0
SMALL
USER_CHARGES

@<TRIPOS>ATOM
      1 C1         -5.2975   -6.3472   -3.4816 C.3       1 <0>        -0.1169
      2 C2         -3.9614   -6.2784   -2.7879 C.ar      1 <0>        -0.0656
      3 C3         -2.8829   -5.6899   -3.4229 C.ar      1 <0>        -0.1339
      4 C4         -1.6555   -5.6244   -2.7896 C.ar      1 <0>        -0.0984
      5 C5         -1.5030   -6.1468   -1.5200 C.ar      1 <0>        -0.1402
      6 C6         -2.5839   -6.7383   -0.8798 C.ar      1 <0>         0.1478
      7 C7         -3.8168   -6.7978   -1.5166 C.ar      1 <0>        -0.1193
      8 C8         -4.9940   -7.4337   -0.8231 C.3       1 <0>        -0.1171
      9 N1         -2.4325   -7.2688    0.4061 N.am      1 <0>        -0.6615
     10 C9         -1.4004   -6.8775    1.1794 C.2       1 <0>         0.5319
     11 O1         -0.6603   -5.9940    0.8014 O.2       1 <0>        -0.4909
     12 C10        -1.1659   -7.5376    2.5136 C.3       1 <0>        -0.1346
     13 S1          0.2869   -6.7965    3.3079 S.3       1 <0>        -0.1328
     14 C11         0.5211   -7.7891    4.8080 C.3       1 <0>         0.1409
     15 H1          0.3947   -8.8472    4.5791 H         1 <0>         0.0964
     16 N2         -0.4493   -7.3753    5.8470 N.3       1 <0>        -0.4798
     17 N3          0.3005   -7.4705    7.1093 N.3       1 <0>        -0.4696
     18 C12         1.6582   -6.9994    6.7295 C.3       1 <0>         0.2622
     19 H2          1.6925   -5.9101    6.7104 H         1 <0>         0.1071
     20 N4          1.8670   -7.5495    5.3689 N.3       1 <0>        -0.3141
     21 N5          2.6189   -6.6206    4.5407 N.3       1 <0>        -0.6337
     22 C13         2.7065   -7.5499    7.6986 C.3       1 <0>        -0.0277
     23 H3          2.7572   -8.6367    7.6320 H         1 <0>         0.1555
     24 C14         2.4032   -7.1136    9.1209 C.2       1 <0>        -0.1331
     25 C15         3.4796   -6.3833    9.4708 C.2       1 <0>         0.0062
     26 N6          4.3716   -6.3327    8.4469 N.2       1 <0>        -0.1585
     27 N7          4.0249   -6.9507    7.4336 N.2       1 <0>        -0.1090
     28 C16         3.6650   -5.7263   10.7881 C.ar      1 <0>        -0.0264
     29 C17         2.6864   -5.8465   11.7732 C.ar      1 <0>        -0.0889
     30 C18         2.8634   -5.2335   12.9967 C.ar      1 <0>        -0.1100
     31 C19         4.0106   -4.4997   13.2464 C.ar      1 <0>        -0.0261
     32 C20         4.9855   -4.3773   12.2711 C.ar      1 <0>        -0.1102
     33 C21         4.8207   -4.9916   11.0466 C.ar      1 <0>        -0.0742
     34 Cl1         4.2269   -3.7300   14.7873 Cl        1 <0>        -0.0641
     35 H4         -5.8749   -5.4528   -3.2476 H         1 <0>         0.0723
     36 H5         -5.1446   -6.4094   -4.5591 H         1 <0>         0.0689
     37 H6         -5.8392   -7.2291   -3.1400 H         1 <0>         0.0688
     38 H7         -2.9995   -5.2810   -4.4157 H         1 <0>         0.1237
     39 H8         -0.8151   -5.1645   -3.2883 H         1 <0>         0.1267
     40 H9         -0.5440   -6.0956   -1.0261 H         1 <0>         0.1531
     41 H10        -5.0222   -8.4979   -1.0572 H         1 <0>         0.0716
     42 H11        -4.8960   -7.3011    0.2543 H         1 <0>         0.0603
     43 H12        -5.9153   -6.9619   -1.1650 H         1 <0>         0.0762
     44 H13        -3.0705   -7.9183    0.7409 H         1 <0>         0.4120
     45 H14        -2.0400   -7.3939    3.1487 H         1 <0>         0.1188
     46 H15        -0.9950   -8.6040    2.3664 H         1 <0>         0.1167
     47 H16        -1.2519   -7.9866    5.8562 H         1 <0>         0.3519
     48 H17         0.3282   -8.4225    7.4425 H         1 <0>         0.3264
     49 H18         2.7061   -6.9667    3.5969 H         1 <0>         0.3715
     50 H19         2.1979   -5.7037    4.5521 H         1 <0>         0.3334
     51 H20         1.5284   -7.3365    9.7137 H         1 <0>         0.1781
     52 H21         1.7909   -6.4181   11.5791 H         1 <0>         0.1344
     53 H22         2.1057   -5.3261   13.7607 H         1 <0>         0.1391
     54 H23         5.8785   -3.8035   12.4705 H         1 <0>         0.1398
     55 H24         5.5840   -4.8996   10.2881 H         1 <0>         0.1451
@<TRIPOS>BOND
     1    1    2 1
     2    1   35 1
     3    1   36 1
     4    1   37 1
     5    2    7 ar
     6    2    3 ar
     7    3    4 ar
     8    3   38 1
     9    4    5 ar
    10    4   39 1
    11    5    6 ar
    12    5   40 1
    13    6    7 ar
    14    6    9 1
    15    7    8 1
    16    8   41 1
    17    8   42 1
    18    8   43 1
    19    9   10 am
    20    9   44 1
    21   10   11 2
    22   10   12 1
    23   12   13 1
    24   12   45 1
    25   12   46 1
    26   13   14 1
    27   14   15 1
    28   14   20 1
    29   14   16 1
    30   16   17 1
    31   16   47 1
    32   17   18 1
    33   17   48 1
    34   18   19 1
    35   18   20 1
    36   18   22 1
    37   20   21 1
    38   21   49 1
    39   21   50 1
    40   22   23 1
    41   22   27 1
    42   22   24 1
    43   24   25 2
    44   24   51 1
    45   25   26 1
    46   25   28 1
    47   26   27 2
    48   28   33 ar
    49   28   29 ar
    50   29   30 ar
    51   29   52 1
    52   30   31 ar
    53   30   53 1
    54   31   32 ar
    55   31   34 1
    56   32   33 ar
    57   32   54 1
    58   33   55 1
@<TRIPOS>MOLECULE
ZINC40782775
   45    47     0     0     0
SMALL
USER_CHARGES

@<TRIPOS>ATOM
      1 C1          1.1604   -0.4927   -0.8538 C.3       1 <0>        -0.2013
      2 C2          0.0000   -0.0011   -0.0274 C.2       1 <0>         0.3956
      3 O1          0.1077    1.0160    0.6249 O.2       1 <0>        -0.4640
      4 C3         -1.2603   -0.7529   -0.0117 C.ar      1 <0>        -0.2005
      5 C4         -1.3850   -1.9310   -0.7598 C.ar      1 <0>        -0.0470
      6 C5         -2.5593   -2.6276   -0.7420 C.ar      1 <0>        -0.1330
      7 C6         -3.6326   -2.1683    0.0181 C.ar      1 <0>         0.2038
      8 C7         -3.5130   -0.9974    0.7634 C.ar      1 <0>        -0.1706
      9 C8         -2.3404   -0.2977    0.7559 C.ar      1 <0>        -0.0345
     10 N1         -4.8264   -2.8801    0.0326 N.pl3     1 <0>        -0.6512
     11 C9         -4.8106   -4.2667   -0.0742 C.ar      1 <0>         0.3916
     12 C10        -6.0041   -4.9832   -0.1777 C.ar      1 <0>         0.0211
     13 C11        -5.9312   -6.3737   -0.2830 C.ar      1 <0>         0.4048
     14 N2         -4.7358   -6.9584   -0.2807 N.ar      1 <0>        -0.5732
     15 C12        -3.6328   -6.2444   -0.1810 C.ar      1 <0>         0.3313
     16 N3         -3.6571   -4.9306   -0.0848 N.ar      1 <0>        -0.5533
     17 N4         -7.0890   -7.1351   -0.3882 N.pl3     1 <0>        -0.5102
     18 N5         -7.0033   -8.5295   -0.4932 N.am      1 <0>        -0.5035
     19 C13        -8.1261   -9.2679   -0.5952 C.2       1 <0>         0.5586
     20 O2         -9.2133   -8.7241   -0.5960 O.2       1 <0>        -0.5353
     21 C14        -8.0357  -10.7390   -0.7061 C.ar      1 <0>        -0.1141
     22 C15        -6.7888  -11.3669   -0.6997 C.ar      1 <0>        -0.0788
     23 C16        -6.7109  -12.7399   -0.8035 C.ar      1 <0>        -0.0952
     24 C17        -7.8662  -13.4954   -0.9144 C.ar      1 <0>        -0.0644
     25 C18        -9.1058  -12.8783   -0.9217 C.ar      1 <0>        -0.0964
     26 C19        -9.1970  -11.5066   -0.8118 C.ar      1 <0>        -0.0479
     27 Br1        -7.7504  -15.3775   -1.0569 Br        1 <0>        -0.0353
     28 N6         -7.2436   -4.3241   -0.1756 N.pl3     1 <0>        -0.8737
     29 H1          2.0024    0.1902   -0.7403 H         1 <0>         0.0839
     30 H2          1.4513   -1.4874   -0.5161 H         1 <0>         0.0939
     31 H3          0.8668   -0.5364   -1.9026 H         1 <0>         0.0932
     32 H4         -0.5536   -2.2874   -1.3499 H         1 <0>         0.1344
     33 H5         -2.6562   -3.5359   -1.3183 H         1 <0>         0.1432
     34 H6         -4.3476   -0.6448    1.3513 H         1 <0>         0.1287
     35 H7         -2.2472    0.6078    1.3372 H         1 <0>         0.1351
     36 H8         -5.6705   -2.4097    0.1172 H         1 <0>         0.4164
     37 H9         -2.6793   -6.7515   -0.1819 H         1 <0>         0.2025
     38 H10        -7.9565   -6.7011   -0.3888 H         1 <0>         0.4390
     39 H11        -6.1358   -8.9635   -0.4926 H         1 <0>         0.4340
     40 H12        -5.8871  -10.7787   -0.6140 H         1 <0>         0.1382
     41 H13        -5.7470  -13.2269   -0.7987 H         1 <0>         0.1440
     42 H14       -10.0032  -13.4727   -1.0092 H         1 <0>         0.1444
     43 H15       -10.1645  -11.0268   -0.8128 H         1 <0>         0.1487
     44 H16        -7.2788   -3.3576   -0.1014 H         1 <0>         0.3982
     45 H17        -8.0648   -4.8352   -0.2482 H         1 <0>         0.3988
@<TRIPOS>BOND
     1    1    2 1
     2    1   29 1
     3    1   30 1
     4    1   31 1
     5    2    3 2
     6    2    4 1
     7    4    9 ar
     8    4    5 ar
     9    5    6 ar
    10    5   32 1
    11    6    7 ar
    12    6   33 1
    13    7    8 ar
    14    7   10 1
    15    8    9 ar
    16    8   34 1
    17    9   35 1
    18   10   11 1
    19   10   36 1
    20   11   16 ar
    21   11   12 ar
    22   12   13 ar
    23   12   28 1
    24   13   14 ar
    25   13   17 1
    26   14   15 ar
    27   15   16 ar
    28   15   37 1
    29   17   18 1
    30   17   38 1
    31   18   19 am
    32   18   39 1
    33   19   20 2
    34   19   21 1
    35   21   26 ar
    36   21   22 ar
    37   22   23 ar
    38   22   40 1
    39   23   24 ar
    40   23   41 1
    41   24   25 ar
    42   24   27 1
    43   25   26 ar
    44   25   42 1
    45   26   43 1
    46   28   44 1
    47   28   45 1
@<TRIPOS>MOLECULE
ZINC20292282
   51    53     0     0     0
SMALL
USER_CHARGES

@<TRIPOS>ATOM
      1 C1          0.0251    1.5032    0.0055 C.3       1 <0>        -0.1148
      2 C2          0.0340   -0.0037   -0.0015 C.ar      1 <0>        -0.0926
      3 C3          0.6317   -0.6854   -1.0460 C.ar      1 <0>        -0.1087
      4 C4          0.6415   -2.0662   -1.0554 C.ar      1 <0>        -0.1104
      5 C5          0.0507   -2.7705   -0.0142 C.ar      1 <0>         0.1328
      6 C6         -0.5482   -2.0832    1.0331 C.ar      1 <0>        -0.1028
      7 C7         -0.5504   -0.7019    1.0390 C.ar      1 <0>        -0.1050
      8 C8         -1.1904   -2.8434    2.1648 C.3       1 <0>        -0.1173
      9 N1          0.0586   -4.1697   -0.0209 N.am      1 <0>        -0.6629
     10 C9         -0.0404   -4.8386   -1.1868 C.2       1 <0>         0.5375
     11 O1         -0.0541   -4.2300   -2.2358 O.2       1 <0>        -0.5020
     12 C10        -0.1340   -6.3427   -1.1871 C.3       1 <0>        -0.1596
     13 S1         -0.2552   -6.9407   -2.8954 S.3       1 <0>         0.1134
     14 C11        -0.3560   -8.6918   -2.7278 C.2       1 <0>         0.2145
     15 N2         -0.3477   -9.3600   -1.5992 N.2       1 <0>        -0.3080
     16 N3         -0.4452  -10.7242   -1.9030 N.2       1 <0>        -0.3001
     17 C12        -0.5098  -10.8452   -3.2069 C.2       1 <0>         0.4664
     18 N4         -0.4622   -9.5915   -3.7504 N.pl3     1 <0>        -0.3459
     19 N5         -0.5091   -9.2914   -5.0822 N.3       1 <0>        -0.5883
     20 N6         -0.6141  -12.0358   -3.9111 N.pl3     1 <0>        -0.5575
     21 N7         -0.6597  -13.2551   -3.2227 N.2       1 <0>        -0.1738
     22 C13        -0.7574  -14.3699   -3.8821 C.2       1 <0>         0.0967
     23 C14        -0.8053  -15.6522   -3.1582 C.ar      1 <0>        -0.0931
     24 C15        -0.9046  -16.8533   -3.8650 C.ar      1 <0>        -0.0569
     25 C16        -0.9492  -18.0505   -3.1840 C.ar      1 <0>        -0.1597
     26 C17        -0.8958  -18.0678   -1.7955 C.ar      1 <0>         0.1422
     27 C18        -0.7971  -16.8805   -1.0847 C.ar      1 <0>        -0.1813
     28 C19        -0.7457  -15.6724   -1.7575 C.ar      1 <0>         0.1667
     29 O2         -0.6430  -14.5096   -1.0631 O.3       1 <0>        -0.4700
     30 O3         -0.9407  -19.2522   -1.1314 O.3       1 <0>        -0.4974
     31 H1          0.9181    1.8695    0.5119 H         1 <0>         0.0706
     32 H2          0.0124    1.8713   -1.0204 H         1 <0>         0.0669
     33 H3         -0.8618    1.8589    0.5300 H         1 <0>         0.0661
     34 H4          1.0909   -0.1372   -1.8553 H         1 <0>         0.1258
     35 H5          1.1078   -2.5980   -1.8716 H         1 <0>         0.1405
     36 H6         -1.0125   -0.1666    1.8554 H         1 <0>         0.1263
     37 H7         -0.4523   -3.0237    2.9464 H         1 <0>         0.0728
     38 H8         -2.0158   -2.2596    2.5723 H         1 <0>         0.0726
     39 H9         -1.5676   -3.7965    1.7943 H         1 <0>         0.0644
     40 H10         0.1353   -4.6583    0.8135 H         1 <0>         0.4143
     41 H11         0.7558   -6.7622   -0.7176 H         1 <0>         0.1302
     42 H12        -1.0186   -6.6518   -0.6303 H         1 <0>         0.1309
     43 H13         0.4175   -9.2707   -5.4810 H         1 <0>         0.3654
     44 H14        -1.1019   -9.9398   -5.5783 H         1 <0>         0.3699
     45 H15        -0.6555  -12.0240   -4.8802 H         1 <0>         0.3889
     46 H16        -0.8034  -14.3568   -4.9611 H         1 <0>         0.1229
     47 H17        -0.9467  -16.8435   -4.9441 H         1 <0>         0.1379
     48 H18        -1.0263  -18.9784   -3.7312 H         1 <0>         0.1376
     49 H19        -0.7559  -16.8994   -0.0057 H         1 <0>         0.1402
     50 H20        -1.4941  -14.1179   -0.8237 H         1 <0>         0.3966
     51 H21        -0.0726  -19.6479   -0.9737 H         1 <0>         0.3973
@<TRIPOS>BOND
     1    1    2 1
     2    1   31 1
     3    1   32 1
     4    1   33 1
     5    2    7 ar
     6    2    3 ar
     7    3    4 ar
     8    3   34 1
     9    4    5 ar
    10    4   35 1
    11    5    6 ar
    12    5    9 1
    13    6    7 ar
    14    6    8 1
    15    7   36 1
    16    8   37 1
    17    8   38 1
    18    8   39 1
    19    9   10 am
    20    9   40 1
    21   10   11 2
    22   10   12 1
    23   12   13 1
    24   12   41 1
    25   12   42 1
    26   13   14 1
    27   14   18 1
    28   14   15 2
    29   15   16 1
    30   16   17 2
    31   17   18 1
    32   17   20 1
    33   18   19 1
    34   19   43 1
    35   19   44 1
    36   20   21 1
    37   20   45 1
    38   21   22 2
    39   22   23 1
    40   22   46 1
    41   23   28 ar
    42   23   24 ar
    43   24   25 ar
    44   24   47 1
    45   25   26 ar
    46   25   48 1
    47   26   27 ar
    48   26   30 1
    49   27   28 ar
    50   27   49 1
    51   28   29 1
    52   29   50 1
    53   30   51 1
@<TRIPOS>MOLECULE
ZINC30516283
   38    40     0     0     0
SMALL
USER_CHARGES
(3S)-N5-(3-hydroxy-2-pyridyl)-2-phenyl-3,4-dihydropyrazole-3,5-dicarboxamide
@<TRIPOS>ATOM
      1 C1          9.7632    5.7487   -0.0596 C.ar      1 <0>        -0.1693
      2 C2          8.8594    4.7019   -0.0567 C.ar      1 <0>        -0.0813
      3 C3          7.5028    4.9588   -0.0430 C.ar      1 <0>        -0.1534
      4 C4          7.0459    6.2713   -0.0319 C.ar      1 <0>         0.2419
      5 C5          7.9569    7.3207   -0.0402 C.ar      1 <0>        -0.1767
      6 C6          9.3122    7.0561   -0.0485 C.ar      1 <0>        -0.0839
      7 N1          5.6751    6.5348   -0.0180 N.pl3     1 <0>        -0.4555
      8 C7          5.0615    7.8720   -0.0049 C.3       1 <0>         0.0888
      9 H1          5.4030    8.4771   -0.8576 H         1 <0>         0.1048
     10 C8          3.5484    7.5783    0.0014 C.3       1 <0>        -0.0931
     11 C9          3.4692    6.0684    0.0006 C.2       1 <0>         0.0791
     12 N2          4.6657    5.5744   -0.0136 N.2       1 <0>        -0.1516
     13 C10         2.2329    5.2874    0.0082 C.2       1 <0>         0.5146
     14 O1          1.1554    5.8535    0.0211 O.2       1 <0>        -0.6381
     15 N3          2.2865    3.9407    0.0009 N.2       1 <0>        -0.6094
     16 C11         1.1076    3.1959    0.0082 C.2       1 <0>         0.3124
     17 C12         1.1697    1.8019    0.0006 C.2       1 <0>         0.2699
     18 C13        -0.0126    1.0758    0.0075 C.2       1 <0>        -0.2607
     19 C14        -1.2149    1.7699    0.0164 C.2       1 <0>        -0.0935
     20 C15        -1.1996    3.1501    0.0281 C.2       1 <0>        -0.0867
     21 N4         -0.0603    3.8166    0.0214 N.pl3     1 <0>        -0.4754
     22 O2          2.3708    1.1646   -0.0134 O.3       1 <0>        -0.6463
     23 C16         5.4680    8.6294    1.2328 C.2       1 <0>         0.5015
     24 O3          5.9113    8.0324    2.1909 O.2       1 <0>        -0.5229
     25 N5          5.3389    9.9703    1.2752 N.am      1 <0>        -0.8769
     26 H2         10.8237    5.5448   -0.0703 H         1 <0>         0.1177
     27 H3          9.2152    3.6822   -0.0654 H         1 <0>         0.1247
     28 H4          6.7976    4.1409   -0.0407 H         1 <0>         0.1386
     29 H5          7.6054    8.3418   -0.0360 H         1 <0>         0.1096
     30 H6         10.0208    7.8711   -0.0509 H         1 <0>         0.1193
     31 H7          3.0935    8.0168    0.9019 H         1 <0>         0.1015
     32 H8          3.0858    8.0182   -0.8944 H         1 <0>         0.1107
     33 H9         -0.0126    0.0758    0.0063 H         1 <0>         0.1101
     34 H10        -2.0809    1.2699    0.0143 H         1 <0>         0.1121
     35 H11        -2.0684    3.6451    0.0419 H         1 <0>         0.1307
     36 H12         5.6357   10.5231    2.1787 H         1 <0>         0.4220
     37 H13         4.9368   10.5119    0.4063 H         1 <0>         0.4192
     38 H14        -0.0989    4.9159    0.0270 H         1 <0>         0.4456
@<TRIPOS>BOND
     1    1    6 ar
     2    1    2 ar
     3    1   26 1
     4    2    3 ar
     5    2   27 1
     6    3    4 ar
     7    3   28 1
     8    4    5 ar
     9    4    7 1
    10    5    6 ar
    11    5   29 1
    12    6   30 1
    13    7   12 1
    14    7    8 1
    15    8    9 1
    16    8   10 1
    17    8   23 1
    18   10   11 1
    19   10   31 1
    20   10   32 1
    21   11   12 2
    22   11   13 1
    23   13   14 2
    24   13   15 1
    25   15   16 2
    26   16   17 1
    27   16   21 1
    28   17   22 1
    29   17   18 2
    30   18   19 1
    31   18   33 1
    32   19   20 2
    33   19   34 1
    34   20   21 1
    35   20   35 1
    36   21   38 1
    37   23   24 2
    38   23   25 am
    39   25   36 1
    40   25   37 1
@<TRIPOS>MOLECULE
ZINC38108025
   31    32     0     0     0
SMALL
USER_CHARGES

@<TRIPOS>ATOM
      1 C1         -0.0132    1.3741    0.1943 C.ar      1 <0>        -0.0691
      2 C2          1.1716    2.0830    0.1928 C.ar      1 <0>        -0.1640
      3 C3          2.3773    1.4198    0.0050 C.ar      1 <0>         0.2690
      4 C4          2.3909    0.0436   -0.1813 C.ar      1 <0>        -0.2477
      5 C5          1.2059   -0.6649   -0.1797 C.ar      1 <0>        -0.0836
      6 C6          0.0007   -0.0017    0.0081 C.ar      1 <0>         0.0446
      7 N1         -1.2024   -0.7214    0.0102 N.am      1 <0>        -0.6738
      8 C7         -2.3275   -0.1547   -0.4689 C.2       1 <0>         0.6981
      9 O1         -2.2809    0.9425   -0.9909 O.2       1 <0>        -0.5811
     10 N2         -3.5043   -0.8041   -0.3694 N.am      1 <0>        -0.8716
     11 N3          3.5781    2.1381    0.0029 N.2       1 <0>        -1.0836
     12 S1          5.0156    1.3472   -0.2210 S.o2      1 <0>         2.5959
     13 O2          5.1993    0.5098    0.9122 O.2       1 <0>        -1.0206
     14 O3          4.9976    0.8399   -1.5483 O.2       1 <0>        -1.0201
     15 C8          6.2922    2.5603   -0.1629 C.ar      1 <0>        -0.5577
     16 C9          6.7061    3.2111   -1.3158 C.ar      1 <0>        -0.0737
     17 C10         7.7099    4.1566   -1.2325 C.ar      1 <0>         0.0964
     18 N4          8.2734    4.4426   -0.0747 N.ar      1 <0>        -0.4553
     19 C11         7.9057    3.8440    1.0423 C.ar      1 <0>         0.1528
     20 C12         6.9024    2.8907    1.0365 C.ar      1 <0>        -0.0571
     21 Cl1         8.6840    4.2621    2.5366 Cl        1 <0>        -0.0332
     22 H1         -0.9504    1.8892    0.3448 H         1 <0>         0.1206
     23 H2          1.1608    3.1533    0.3372 H         1 <0>         0.1169
     24 H3          3.3284   -0.4722   -0.3277 H         1 <0>         0.1009
     25 H4          1.2164   -1.7351   -0.3245 H         1 <0>         0.1060
     26 H5         -1.2251   -1.6272    0.3564 H         1 <0>         0.3964
     27 H6         -3.5415   -1.6794    0.0470 H         1 <0>         0.3936
     28 H7         -4.3140   -0.3963   -0.7142 H         1 <0>         0.4121
     29 H8          6.2494    2.9812   -2.2671 H         1 <0>         0.1579
     30 H9          8.0373    4.6674   -2.1259 H         1 <0>         0.1720
     31 H10         6.6021    2.4072    1.9544 H         1 <0>         0.1590
@<TRIPOS>BOND
     1    1    6 ar
     2    1    2 ar
     3    1   22 1
     4    2    3 ar
     5    2   23 1
     6    3    4 ar
     7    3   11 1
     8    4    5 ar
     9    4   24 1
    10    5    6 ar
    11    5   25 1
    12    6    7 1
    13    7    8 am
    14    7   26 1
    15    8    9 2
    16    8   10 am
    17   10   27 1
    18   10   28 1
    19   11   12 1
    20   12   13 2
    21   12   14 2
    22   12   15 1
    23   15   20 ar
    24   15   16 ar
    25   16   17 ar
    26   16   29 1
    27   17   18 ar
    28   17   30 1
    29   18   19 ar
    30   19   20 ar
    31   19   21 1
    32   20   31 1
@<TRIPOS>MOLECULE
ZINC44887290
   29    30     0     0     0
SMALL
USER_CHARGES

@<TRIPOS>ATOM
      1 C1         -0.4577    1.7897    0.8261 C.3       1 <0>        -0.1489
      2 C2         -0.0783    0.4069    0.2925 C.3       1 <0>         0.2715
      3 H1          0.5567    0.5182   -0.5864 H         1 <0>         0.0930
      4 C3         -1.3281   -0.3468   -0.0830 C.2       1 <0>         0.0409
      5 N1         -1.7749   -0.5747   -1.3095 N.2       1 <0>        -0.3772
      6 N2         -2.8679   -1.2509   -1.2067 N.2       1 <0>        -0.1947
      7 N3         -3.1201   -1.4536    0.0395 N.2       1 <0>        -0.1970
      8 N4         -2.1888   -0.9142    0.7496 N.2       1 <0>        -0.3773
      9 N5          0.6463   -0.3341    1.3278 N.pl3     1 <0>        -1.0997
     10 S1          2.1713   -0.9040    1.0242 S.o2      1 <0>         2.6921
     11 O1          2.6187   -1.5247    2.2216 O.2       1 <0>        -0.9674
     12 O2          2.1067   -1.5967   -0.2148 O.2       1 <0>        -0.9477
     13 C4          3.2087    0.4963    0.7648 C.ar      1 <0>        -0.7397
     14 C5          3.8027    0.6981   -0.4658 C.ar      1 <0>         0.0340
     15 C6          4.6165    1.7967   -0.6708 C.ar      1 <0>        -0.1722
     16 C7          4.8393    2.6976    0.3559 C.ar      1 <0>         0.0074
     17 C8          4.2485    2.5012    1.5893 C.ar      1 <0>        -0.1897
     18 C9          3.4253    1.4014    1.7959 C.ar      1 <0>         0.3230
     19 N6          2.8218    1.2028    3.0398 N.pl3     1 <0>        -0.8593
     20 Br1         5.9539    4.1984    0.0705 Br        1 <0>        -0.0443
     21 H2          0.4463    2.3349    1.0976 H         1 <0>         0.0549
     22 H3         -0.9968    2.3411    0.0557 H         1 <0>         0.0673
     23 H4         -1.0927    1.6784    1.7050 H         1 <0>         0.0650
     24 H5          0.2329   -0.4910    2.1912 H         1 <0>         0.4198
     25 H6          3.6314   -0.0035   -1.2689 H         1 <0>         0.1535
     26 H7          5.0796    1.9520   -1.6340 H         1 <0>         0.1396
     27 H8          4.4228    3.2042    2.3904 H         1 <0>         0.1389
     28 H9          2.2283    0.4477    3.1759 H         1 <0>         0.4044
     29 H10         2.9961    1.8200    3.7675 H         1 <0>         0.4095
@<TRIPOS>BOND
     1    1    2 1
     2    1   21 1
     3    1   22 1
     4    1   23 1
     5    2    3 1
     6    2    4 1
     7    2    9 1
     8    4    5 1
     9    4    8 2
    10    5    6 1
    11    6    7 2
    12    7    8 1
    13    9   10 1
    14    9   24 1
    15   10   11 2
    16   10   12 2
    17   10   13 1
    18   13   18 ar
    19   13   14 ar
    20   14   15 ar
    21   14   25 1
    22   15   16 ar
    23   15   26 1
    24   16   17 ar
    25   16   20 1
    26   17   18 ar
    27   17   27 1
    28   18   19 1
    29   19   28 1
    30   19   29 1
@<TRIPOS>MOLECULE
ZINC58950124
   36    38     0     0     0
SMALL
USER_CHARGES

@<TRIPOS>ATOM
      1 C1         -0.4452    1.4693   -1.6462 C.3       1 <0>         0.0295
      2 O1         -0.4219    0.0443   -1.7517 O.3       1 <0>        -0.3499
      3 C2          0.5494   -0.6048   -1.0739 C.2       1 <0>         0.5461
      4 O2          1.3546    0.0247   -0.4112 O.2       1 <0>        -0.5054
      5 C3          0.6309   -2.0042   -1.1331 C.2       1 <0>        -0.3652
      6 C4          1.1760   -2.5949   -2.2266 C.2       1 <0>         0.4375
      7 O3          1.2796   -3.9293   -2.3367 O.3       1 <0>        -0.2417
      8 C5          1.2043   -4.7061   -1.2348 C.2       1 <0>         0.4387
      9 C6          0.6501   -4.2260   -0.0659 C.2       1 <0>        -0.4329
     10 C7          0.5918   -5.0661    1.0540 C.2       1 <0>         0.5661
     11 O4          0.1077   -4.6719    2.1029 O.2       1 <0>        -0.5740
     12 N1          1.0809   -6.3200    0.9503 N.am      1 <0>        -0.6655
     13 H1          1.0496   -6.9176    1.7138 H         1 <0>         0.4047
     14 C8          1.6165   -6.7448   -0.2235 C.2       1 <0>         0.6388
     15 O5          2.1008   -8.0006   -0.3107 O.3       1 <0>        -0.6515
     16 N2          1.6734   -5.9607   -1.2755 N.2       1 <0>        -0.6156
     17 C9          0.1184   -2.8239    0.0188 C.3       1 <0>         0.1313
     18 H2          0.4389   -2.3697    0.9564 H         1 <0>         0.0861
     19 C10        -1.3874   -2.8620   -0.0259 C.ar      1 <0>        -0.0176
     20 C11        -2.0303   -3.3977   -1.1279 C.ar      1 <0>        -0.1002
     21 C12        -3.4084   -3.4357   -1.1754 C.ar      1 <0>        -0.0701
     22 C13        -4.1547   -2.9325   -0.1079 C.ar      1 <0>        -0.0521
     23 C14        -3.4994   -2.3938    1.0012 C.ar      1 <0>        -0.0700
     24 C15        -2.1207   -2.3664    1.0376 C.ar      1 <0>        -0.1065
     25 C16        -5.5856   -2.9683   -0.1506 C.1       1 <0>         0.2674
     26 N3         -6.7207   -2.9967   -0.1845 N.1       1 <0>        -0.4398
     27 N4          1.6336   -1.8069   -3.2482 N.pl3     1 <0>        -0.8359
     28 H3         -0.5760    1.7543   -0.6023 H         1 <0>         0.0585
     29 H4          0.4945    1.8766   -2.0191 H         1 <0>         0.0553
     30 H5         -1.2721    1.8638   -2.2369 H         1 <0>         0.0967
     31 H6         -1.4518   -3.7865   -1.9528 H         1 <0>         0.1244
     32 H7         -3.9089   -3.8534   -2.0364 H         1 <0>         0.1268
     33 H8         -4.0706   -2.0029    1.8302 H         1 <0>         0.1268
     34 H9         -1.6125   -1.9538    1.8966 H         1 <0>         0.1306
     35 H10         1.6515   -0.8424   -3.1462 H         1 <0>         0.4192
     36 H11         1.9400   -2.2129   -4.0741 H         1 <0>         0.4095
@<TRIPOS>BOND
     1    1    2 1
     2    1   28 1
     3    1   29 1
     4    1   30 1
     5    2    3 1
     6    3    4 2
     7    3    5 1
     8    5   17 1
     9    5    6 2
    10    6    7 1
    11    6   27 1
    12    7    8 1
    13    8   16 1
    14    8    9 2
    15    9   10 1
    16    9   17 1
    17   10   11 2
    18   10   12 am
    19   12   13 1
    20   12   14 1
    21   14   15 1
    22   14   16 2
    23   17   18 1
    24   17   19 1
    25   19   24 ar
    26   19   20 ar
    27   20   21 ar
    28   20   31 1
    29   21   22 ar
    30   21   32 1
    31   22   23 ar
    32   22   25 1
    33   23   24 ar
    34   23   33 1
    35   24   34 1
    36   25   26 3
    37   27   35 1
    38   27   36 1
@<TRIPOS>MOLECULE
ZINC65406263
   38    41     0     0     0
SMALL
USER_CHARGES

@<TRIPOS>ATOM
      1 C1          0.4801    0.5304   -1.1799 C.ar      1 <0>        -0.1040
      2 C2          1.6674    1.2379   -1.1884 C.ar      1 <0>        -0.1156
      3 C3          2.3775    1.4111   -0.0137 C.ar      1 <0>        -0.0417
      4 C4          1.8986    0.8760    1.1688 C.ar      1 <0>        -0.1168
      5 C5          0.7112    0.1687    1.1761 C.ar      1 <0>        -0.0776
      6 C6          0.0021   -0.0041    0.0020 C.ar      1 <0>        -0.0529
      7 C7         -1.2928   -0.7750    0.0107 C.3       1 <0>         0.0297
      8 H1         -2.1200   -0.0725    0.1126 H         1 <0>         0.0815
      9 C8         -1.2968   -1.7016    1.1870 C.2       1 <0>        -0.4337
     10 C9         -0.3203   -2.6263    1.2994 C.2       1 <0>         0.2324
     11 N1         -0.0794   -3.4381    2.4036 N.pl3     1 <0>        -0.6541
     12 C10         1.0821   -4.1469    2.1241 C.2       1 <0>         0.1094
     13 N2          1.4913   -3.8969    0.9053 N.2       1 <0>        -0.3417
     14 C11         0.6490   -3.0496    0.2863 C.2       1 <0>        -0.1915
     15 H2         -0.6164   -3.4973    3.2092 H         1 <0>         0.4089
     16 C12         0.7017   -2.7247   -1.0747 C.2       1 <0>         0.6128
     17 O1          1.7225   -3.0280   -1.6683 O.2       1 <0>        -0.5885
     18 N3         -0.2399   -2.1234   -1.7851 N.am      1 <0>        -0.7195
     19 C13        -1.4332   -1.5064   -1.2992 C.3       1 <0>         0.1259
     20 C14         1.7559   -5.0477    3.0620 C.2       1 <0>         0.2933
     21 C15         2.9323   -5.7146    2.6816 C.2       1 <0>        -0.2823
     22 C16         3.5345   -6.5488    3.5861 C.2       1 <0>         0.4639
     23 N4          2.9721   -6.7019    4.8205 N.pl3     1 <0>        -0.6139
     24 C17         1.8412   -6.0411    5.1420 C.2       1 <0>         0.3635
     25 N5          1.2560   -5.2385    4.2961 N.2       1 <0>        -0.5339
     26 O2          4.6670   -7.2100    3.2614 O.3       1 <0>        -0.6341
     27 Cl1         3.8692    2.2991   -0.0237 Cl        1 <0>        -0.0923
     28 H3         -0.0766    0.3990   -2.0960 H         1 <0>         0.1230
     29 H4          2.0409    1.6551   -2.1119 H         1 <0>         0.1227
     30 H5          2.4527    1.0106    2.0860 H         1 <0>         0.1217
     31 H6          0.3374   -0.2494    2.0990 H         1 <0>         0.1330
     32 H7         -2.0713   -1.6306    1.9363 H         1 <0>         0.0932
     33 H8         -0.1036   -2.0995   -2.7452 H         1 <0>         0.3873
     34 H9         -2.1954   -2.2767   -1.1818 H         1 <0>         0.0506
     35 H10        -1.7806   -0.7985   -2.0517 H         1 <0>         0.0589
     36 H11         3.3528   -5.5729    1.6970 H         1 <0>         0.1599
     37 H12         1.4125   -6.1762    6.1240 H         1 <0>         0.2069
     38 H13         3.3881   -7.2898    5.4702 H         1 <0>         0.4155
@<TRIPOS>BOND
     1    1    6 ar
     2    1    2 ar
     3    1   28 1
     4    2    3 ar
     5    2   29 1
     6    3    4 ar
     7    3   27 1
     8    4    5 ar
     9    4   30 1
    10    5    6 ar
    11    5   31 1
    12    6    7 1
    13    7    8 1
    14    7   19 1
    15    7    9 1
    16    9   32 1
    17    9   10 2
    18   10   11 1
    19   10   14 1
    20   11   12 1
    21   11   15 1
    22   12   20 2
    23   12   13 1
    24   13   14 2
    25   14   16 1
    26   16   17 2
    27   16   18 am
    28   18   19 1
    29   18   33 1
    30   19   34 1
    31   19   35 1
    32   20   25 1
    33   20   21 1
    34   21   22 2
    35   21   36 1
    36   22   23 1
    37   22   26 1
    38   23   24 1
    39   23   38 1
    40   24   25 2
    41   24   37 1
@<TRIPOS>MOLECULE
ZINC09915901
   51    52     0     0     0
SMALL
USER_CHARGES
2-(4-aminophenoxy)-6-(hydroxymethyl)-2,3,4,5,6-pentamethyl-tetrahydropyran-3,4,5-triol
@<TRIPOS>ATOM
      1 C1          3.4682    1.2484    0.6209 C.3       1 <0>        -0.1794
      2 C2          1.9833    1.1973    0.9886 C.3       1 <0>         0.1156
      3 C3          1.1355    1.8509   -0.0949 C.3       1 <0>         0.1317
      4 C4          1.0109    3.3613    0.0290 C.3       1 <0>         0.1740
      5 C5          0.8102    3.8256    1.4652 C.3       1 <0>         0.1077
      6 C6          1.7937    3.1599    2.4242 C.3       1 <0>         0.2601
      7 O1          1.7547    1.7512    2.2710 O.3       1 <0>        -0.3473
      8 C7          1.3662    3.5027    3.8648 C.3       1 <0>        -0.1894
      9 O2          3.1112    3.6709    2.2262 O.3       1 <0>        -0.3211
     10 C8          4.1036    3.1290    2.9821 C.ar      1 <0>         0.0676
     11 C9          3.8323    2.0527    3.8138 C.ar      1 <0>        -0.1352
     12 C10         4.8406    1.4988    4.5781 C.ar      1 <0>        -0.1644
     13 C11         6.1239    2.0262    4.5212 C.ar      1 <0>         0.1855
     14 C12         6.3934    3.1071    3.6922 C.ar      1 <0>        -0.1696
     15 C13         5.3850    3.6567    2.9250 C.ar      1 <0>        -0.1024
     16 N1          7.1449    1.4689    5.2993 N.pl3     1 <0>        -0.8830
     17 C14         1.0000    5.3480    1.5342 C.3       1 <0>        -0.1885
     18 O3         -0.5277    3.5180    1.8813 O.3       1 <0>        -0.5168
     19 C15         2.2161    4.0649   -0.6008 C.3       1 <0>        -0.1918
     20 O4         -0.1558    3.7662   -0.7249 O.3       1 <0>        -0.5314
     21 C16         1.7522    1.5177   -1.4657 C.3       1 <0>        -0.1871
     22 O5         -0.1809    1.2719   -0.0584 O.3       1 <0>        -0.5261
     23 C17         1.5831   -0.2961    1.0515 C.3       1 <0>         0.0751
     24 O6          2.3550   -0.9541    2.0580 O.3       1 <0>        -0.5533
     25 H1          3.7795    2.2871    0.5098 H         1 <0>         0.0712
     26 H2          4.0542    0.7758    1.4092 H         1 <0>         0.0790
     27 H3          3.6284    0.7187   -0.3182 H         1 <0>         0.0675
     28 H4          2.0042    2.9697    4.5697 H         1 <0>         0.0889
     29 H5          1.4633    4.5762    4.0269 H         1 <0>         0.0857
     30 H6          0.3287    3.2047    4.0166 H         1 <0>         0.0807
     31 H7          2.8332    1.6453    3.8610 H         1 <0>         0.1531
     32 H8          4.6301    0.6581    5.2225 H         1 <0>         0.1192
     33 H9          7.3911    3.5181    3.6477 H         1 <0>         0.1232
     34 H10         5.5945    4.4974    2.2802 H         1 <0>         0.1253
     35 H11         8.0411    1.8377    5.2596 H         1 <0>         0.3962
     36 H12         6.9563    0.7139    5.8783 H         1 <0>         0.3966
     37 H13         2.0210    5.6002    1.2480 H         1 <0>         0.0855
     38 H14         0.3013    5.8325    0.8521 H         1 <0>         0.0692
     39 H15         0.8123    5.6919    2.5513 H         1 <0>         0.0690
     40 H16        -0.7420    3.8226    2.7737 H         1 <0>         0.3713
     41 H17         2.2773    3.8048   -1.6576 H         1 <0>         0.0784
     42 H18         2.1013    5.1439   -0.4983 H         1 <0>         0.0749
     43 H19         3.1278    3.7468   -0.0950 H         1 <0>         0.0843
     44 H20        -0.3235    4.7184   -0.7087 H         1 <0>         0.3693
     45 H21         1.1301    1.9380   -2.2559 H         1 <0>         0.0772
     46 H22         2.7538    1.9434   -1.5267 H         1 <0>         0.0761
     47 H23         1.8095    0.4358   -1.5851 H         1 <0>         0.0614
     48 H24        -0.1913    0.3113   -0.1690 H         1 <0>         0.3643
     49 H25         0.5237   -0.3784    1.2943 H         1 <0>         0.0626
     50 H26         1.7718   -0.7638    0.0852 H         1 <0>         0.0600
     51 H27         2.1565   -1.8957    2.1531 H         1 <0>         0.3796
@<TRIPOS>BOND
     1    1    2 1
     2    1   25 1
     3    1   26 1
     4    1   27 1
     5    2    7 1
     6    2    3 1
     7    2   23 1
     8    3    4 1
     9    3   21 1
    10    3   22 1
    11    4    5 1
    12    4   19 1
    13    4   20 1
    14    5    6 1
    15    5   17 1
    16    5   18 1
    17    6    7 1
    18    6    8 1
    19    6    9 1
    20    8   28 1
    21    8   29 1
    22    8   30 1
    23    9   10 1
    24   10   15 ar
    25   10   11 ar
    26   11   12 ar
    27   11   31 1
    28   12   13 ar
    29   12   32 1
    30   13   14 ar
    31   13   16 1
    32   14   15 ar
    33   14   33 1
    34   15   34 1
    35   16   35 1
    36   16   36 1
    37   17   37 1
    38   17   38 1
    39   17   39 1
    40   18   40 1
    41   19   41 1
    42   19   42 1
    43   19   43 1
    44   20   44 1
    45   21   45 1
    46   21   46 1
    47   21   47 1
    48   22   48 1
    49   23   24 1
    50   23   49 1
    51   23   50 1
    52   24   51 1
@<TRIPOS>MOLECULE
ZINC35407484
   37    38     0     0     0
SMALL
USER_CHARGES

@<TRIPOS>ATOM
      1 C1          0.0187    1.4124    0.4196 C.ar      1 <0>        -0.1783
      2 C2          1.2117    2.1021    0.3330 C.ar      1 <0>        -0.1025
      3 C3          2.3803    1.4291    0.0026 C.ar      1 <0>         0.1003
      4 C4          2.3496    0.0625   -0.2402 C.ar      1 <0>        -0.0902
      5 C5          1.1568   -0.6276   -0.1537 C.ar      1 <0>        -0.1783
      6 C6         -0.0122    0.0454    0.1767 C.ar      1 <0>         0.1974
      7 N1         -1.2210   -0.6538    0.2648 N.pl3     1 <0>        -0.8815
      8 N2          3.5914    2.1297   -0.0861 N.am      1 <0>        -0.6776
      9 C7          4.7605    1.4763    0.0644 C.2       1 <0>         0.7105
     10 O1          4.7759    0.2616    0.1160 O.2       1 <0>        -0.5715
     11 N3          5.9127    2.1694    0.1578 N.am      1 <0>        -0.6250
     12 C8          5.8977    3.6333    0.2826 C.3       1 <0>         0.1055
     13 C9          6.7184    4.0316    1.5132 C.3       1 <0>        -0.1348
     14 C10         8.1190    3.4243    1.4058 C.3       1 <0>        -0.1013
     15 C11         8.0136    1.8980    1.3690 C.3       1 <0>        -0.1254
     16 H1          7.5116    1.5461    2.2703 H         1 <0>         0.1043
     17 C12         7.2073    1.4749    0.1428 C.3       1 <0>         0.1395
     18 C13         9.3949    1.2999    1.2966 C.2       1 <0>         0.5253
     19 O2         10.3685    2.0230    1.2764 O.2       1 <0>        -0.5376
     20 N4          9.5485   -0.0384    1.2543 N.am      1 <0>        -0.8541
     21 H2         -0.8896    1.9352    0.6805 H         1 <0>         0.1228
     22 H3          1.2358    3.1652    0.5218 H         1 <0>         0.1224
     23 H4          3.2588   -0.4608   -0.4972 H         1 <0>         0.1630
     24 H5          1.1330   -1.6906   -0.3430 H         1 <0>         0.1219
     25 H6         -2.0374   -0.1837    0.4956 H         1 <0>         0.3968
     26 H7         -1.2425   -1.6086    0.0951 H         1 <0>         0.3977
     27 H8          3.5879    3.0848   -0.2559 H         1 <0>         0.4051
     28 H9          6.3362    4.0805   -0.6095 H         1 <0>         0.0761
     29 H10         4.8709    3.9795    0.4004 H         1 <0>         0.0802
     30 H11         6.7957    5.1178    1.5630 H         1 <0>         0.0845
     31 H12         6.2286    3.6597    2.4131 H         1 <0>         0.0702
     32 H13         8.5989    3.7773    0.4930 H         1 <0>         0.0750
     33 H14         8.7130    3.7265    2.2683 H         1 <0>         0.0773
     34 H15         7.0443    0.3974    0.1685 H         1 <0>         0.1007
     35 H16         7.7550    1.7422   -0.7609 H         1 <0>         0.0740
     36 H17         8.7699   -0.6167    1.2704 H         1 <0>         0.4039
     37 H18        10.4377   -0.4233    1.2077 H         1 <0>         0.4037
@<TRIPOS>BOND
     1    1    6 ar
     2    1    2 ar
     3    1   21 1
     4    2    3 ar
     5    2   22 1
     6    3    4 ar
     7    3    8 1
     8    4    5 ar
     9    4   23 1
    10    5    6 ar
    11    5   24 1
    12    6    7 1
    13    7   25 1
    14    7   26 1
    15    8    9 am
    16    8   27 1
    17    9   10 2
    18    9   11 am
    19   11   17 1
    20   11   12 1
    21   12   13 1
    22   12   28 1
    23   12   29 1
    24   13   14 1
    25   13   30 1
    26   13   31 1
    27   14   15 1
    28   14   32 1
    29   14   33 1
    30   15   16 1
    31   15   17 1
    32   15   18 1
    33   17   34 1
    34   17   35 1
    35   18   19 2
    36   18   20 am
    37   20   36 1
    38   20   37 1
@<TRIPOS>MOLECULE
ZINC40436759
   35    36     0     0     0
SMALL
USER_CHARGES

@<TRIPOS>ATOM
      1 C1          0.5289    1.8924   -0.1752 C.3       1 <0>        -0.1626
      2 C2         -0.0421    0.5381    0.2499 C.3       1 <0>         0.1471
      3 H1          0.0834   -0.1797   -0.5607 H         1 <0>         0.1205
      4 C3          0.6880    0.0468    1.4733 C.2       1 <0>         0.5130
      5 O1          0.0780   -0.1613    2.5008 O.2       1 <0>        -0.5128
      6 N1          2.0187   -0.1613    1.4257 N.am      1 <0>        -0.6667
      7 C4          2.7118   -0.5237    2.5853 C.ar      1 <0>         0.1489
      8 C5          2.1066   -1.3480    3.5262 C.ar      1 <0>        -0.1204
      9 C6          2.7880   -1.7065    4.6700 C.ar      1 <0>        -0.0723
     10 C7          4.0848   -1.2419    4.8820 C.ar      1 <0>        -0.0295
     11 C8          4.6899   -0.4155    3.9367 C.ar      1 <0>        -0.0746
     12 C9          4.0066   -0.0635    2.7920 C.ar      1 <0>        -0.1417
     13 C10         4.8199   -1.6259    6.1125 C.2       1 <0>         0.1162
     14 C11         6.1262   -1.2266    6.4561 C.2       1 <0>        -0.2613
     15 C12         6.4301   -1.7857    7.6477 C.2       1 <0>         0.0607
     16 N2          5.3655   -2.5119    8.0511 N.pl3     1 <0>        -0.4741
     17 H2          5.3035   -3.0226    8.8734 H         1 <0>         0.4414
     18 N3          4.3643   -2.3954    7.0785 N.2       1 <0>        -0.2844
     19 N4         -1.4671    0.6836    0.5572 N.am      1 <0>        -0.7307
     20 C13        -2.3803    0.6128   -0.4316 C.2       1 <0>         0.7110
     21 O2         -2.0214    0.4282   -1.5785 O.2       1 <0>        -0.5933
     22 N5         -3.6912    0.7467   -0.1489 N.am      1 <0>        -0.8637
     23 H3          1.5891    1.7842   -0.4038 H         1 <0>         0.0733
     24 H4          0.0008    2.2477   -1.0601 H         1 <0>         0.0799
     25 H5          0.4034    2.6102    0.6355 H         1 <0>         0.0655
     26 H6          2.4958   -0.0598    0.5873 H         1 <0>         0.4152
     27 H7          1.1017   -1.7079    3.3615 H         1 <0>         0.1417
     28 H8          2.3170   -2.3467    5.4014 H         1 <0>         0.1329
     29 H9          5.6947   -0.0543    4.0990 H         1 <0>         0.1334
     30 H10         4.4766    0.5735    2.0574 H         1 <0>         0.1321
     31 H11         6.7704   -0.5871    5.8709 H         1 <0>         0.1509
     32 H12         7.3610   -1.6721    8.1834 H         1 <0>         0.1797
     33 H13        -1.7534    0.8308    1.4722 H         1 <0>         0.4074
     34 H14        -3.9775    0.8939    0.7661 H         1 <0>         0.3993
     35 H15        -4.3485    0.6958   -0.8605 H         1 <0>         0.4177
@<TRIPOS>BOND
     1    1    2 1
     2    1   23 1
     3    1   24 1
     4    1   25 1
     5    2    3 1
     6    2    4 1
     7    2   19 1
     8    4    5 2
     9    4    6 am
    10    6    7 1
    11    6   26 1
    12    7   12 ar
    13    7    8 ar
    14    8    9 ar
    15    8   27 1
    16    9   10 ar
    17    9   28 1
    18   10   11 ar
    19   10   13 1
    20   11   12 ar
    21   11   29 1
    22   12   30 1
    23   13   18 2
    24   13   14 1
    25   14   15 2
    26   14   31 1
    27   15   16 1
    28   15   32 1
    29   16   17 1
    30   16   18 1
    31   19   20 am
    32   19   33 1
    33   20   21 2
    34   20   22 am
    35   22   34 1
    36   22   35 1
@<TRIPOS>MOLECULE
ZINC50324376
   42    44     0     0     0
SMALL
USER_CHARGES

@<TRIPOS>ATOM
      1 C1         -0.0187    1.5258    0.0104 C.3       1 <0>        -0.1664
      2 C2          1.3165    0.7789   -0.0063 C.3       1 <0>        -0.1635
      3 C3          0.0021   -0.0041    0.0020 C.3       1 <0>        -0.0759
      4 C4         -0.4023   -0.6984   -1.2729 C.2       1 <0>         0.0089
      5 C5         -1.4747   -1.5931   -1.4221 C.2       1 <0>         0.1994
      6 C6         -1.4526   -1.9673   -2.7630 C.2       1 <0>        -0.1462
      7 N1         -0.3967   -1.2939   -3.3266 N.pl3     1 <0>        -0.3818
      8 H1         -0.1290   -1.3532   -4.2571 H         1 <0>         0.4446
      9 N2          0.1793   -0.5701   -2.4361 N.2       1 <0>        -0.2290
     10 C7         -2.3688   -2.8909   -3.4354 C.2       1 <0>         0.6044
     11 O1         -3.2674   -3.4209   -2.8085 O.2       1 <0>        -0.5358
     12 N3         -2.2170   -3.1539   -4.7485 N.am      1 <0>        -0.7282
     13 C8         -3.1336   -4.0779   -5.4212 C.3       1 <0>         0.1458
     14 C9         -2.6435   -5.5142   -5.2268 C.3       1 <0>        -0.1292
     15 C10        -3.6008   -6.4791   -5.9294 C.3       1 <0>        -0.0976
     16 C11        -3.6470   -6.1539   -7.4237 C.3       1 <0>        -0.1100
     17 C12        -4.1370   -4.7176   -7.6181 C.3       1 <0>        -0.1065
     18 C13        -3.1798   -3.7526   -6.9155 C.3       1 <0>        -0.1253
     19 C14        -4.5898   -7.1043   -8.1157 C.2       1 <0>         0.5195
     20 O2         -5.1679   -7.9577   -7.4766 O.2       1 <0>        -0.5388
     21 N4         -4.7907   -7.0059   -9.4447 N.am      1 <0>        -0.8569
     22 N5         -2.3679   -2.0157   -0.4397 N.pl3     1 <0>        -0.8377
     23 H2         -0.3072    2.0201    0.9381 H         1 <0>         0.0992
     24 H3         -0.3248    2.0300   -0.9061 H         1 <0>         0.0950
     25 H4          1.8888    0.7918   -0.9339 H         1 <0>         0.1023
     26 H5          1.9064    0.7818    0.9103 H         1 <0>         0.0982
     27 H6         -0.2728   -0.5162    0.9241 H         1 <0>         0.1186
     28 H7         -1.5009   -2.7315   -5.2482 H         1 <0>         0.3936
     29 H8         -4.1316   -3.9737   -4.9956 H         1 <0>         0.0936
     30 H9         -1.6455   -5.6183   -5.6524 H         1 <0>         0.0653
     31 H10        -2.6106   -5.7459   -4.1622 H         1 <0>         0.0745
     32 H11        -3.2517   -7.5023   -5.7909 H         1 <0>         0.0752
     33 H12        -4.5988   -6.3750   -5.5038 H         1 <0>         0.0747
     34 H13        -2.6490   -6.2580   -7.8492 H         1 <0>         0.1002
     35 H14        -4.1700   -4.4859   -8.6827 H         1 <0>         0.0743
     36 H15        -5.1351   -4.6134   -7.1925 H         1 <0>         0.0744
     37 H16        -3.5289   -2.7294   -7.0540 H         1 <0>         0.0758
     38 H17        -2.1818   -3.8568   -7.3411 H         1 <0>         0.0723
     39 H18        -4.3284   -6.3233   -9.9559 H         1 <0>         0.4009
     40 H19        -5.3976   -7.6176   -9.8901 H         1 <0>         0.4020
     41 H20        -2.2833   -1.6839    0.4678 H         1 <0>         0.4029
     42 H21        -3.0744   -2.6416   -0.6634 H         1 <0>         0.4134
@<TRIPOS>BOND
     1    1    3 1
     2    1    2 1
     3    1   23 1
     4    1   24 1
     5    2    3 1
     6    2   25 1
     7    2   26 1
     8    3    4 1
     9    3   27 1
    10    4    9 2
    11    4    5 1
    12    5    6 2
    13    5   22 1
    14    6    7 1
    15    6   10 1
    16    7    8 1
    17    7    9 1
    18   10   11 2
    19   10   12 am
    20   12   13 1
    21   12   28 1
    22   13   18 1
    23   13   14 1
    24   13   29 1
    25   14   15 1
    26   14   30 1
    27   14   31 1
    28   15   16 1
    29   15   32 1
    30   15   33 1
    31   16   17 1
    32   16   19 1
    33   16   34 1
    34   17   18 1
    35   17   35 1
    36   17   36 1
    37   18   37 1
    38   18   38 1
    39   19   20 2
    40   19   21 am
    41   21   39 1
    42   21   40 1
    43   22   41 1
    44   22   42 1
@<TRIPOS>MOLECULE
ZINC61593985
   34    36     0     0     0
SMALL
USER_CHARGES

@<TRIPOS>ATOM
      1 C1         -0.0174    1.3852   -0.1151 C.ar      1 <0>        -0.0952
      2 C2          1.1702    2.0935   -0.1214 C.ar      1 <0>        -0.0211
      3 C3          2.3787    1.4215   -0.0149 C.ar      1 <0>        -0.1853
      4 C4          2.3913    0.0306    0.0984 C.ar      1 <0>         0.2656
      5 C5          1.1957   -0.6710    0.1039 C.ar      1 <0>        -0.1001
      6 C6         -0.0048    0.0075   -0.0029 C.ar      1 <0>        -0.5915
      7 S1         -1.5229   -0.8871    0.0042 S.o2      1 <0>         2.7004
      8 O1         -1.2664   -2.1170    0.6681 O.2       1 <0>        -0.9583
      9 O2         -2.5264    0.0194    0.4407 O.2       1 <0>        -0.9528
     10 N1         -1.8768   -1.2633   -1.5691 N.pl3     1 <0>        -1.2460
     11 N2          3.6073   -0.6539    0.2058 N.pl3     1 <0>        -0.8588
     12 S2          3.8937    2.3212   -0.0232 S.3       1 <0>         0.1409
     13 C7          4.5440    2.0461   -1.6375 C.2       1 <0>         0.2315
     14 N3          3.9423    1.4088   -2.6001 N.2       1 <0>        -0.2665
     15 N4          4.7894    1.4091   -3.7168 N.am      1 <0>        -0.5428
     16 H1          4.6023    1.0069   -4.5795 H         1 <0>         0.4572
     17 C8          5.9124    2.0720   -3.3715 C.2       1 <0>         0.6535
     18 O3          6.8773    2.2747   -4.0871 O.2       1 <0>        -0.5445
     19 N5          5.7707    2.4745   -2.0929 N.am      1 <0>        -0.5050
     20 C9          6.7549    3.2353   -1.3191 C.3       1 <0>         0.0642
     21 C10         7.9688    3.7878   -2.0689 C.3       1 <0>        -0.1732
     22 C11         8.1333    2.6037   -1.1140 C.3       1 <0>        -0.1746
     23 H2         -0.9579    1.9104   -0.1936 H         1 <0>         0.1498
     24 H3          1.1566    3.1698   -0.2096 H         1 <0>         0.1466
     25 H4          1.2018   -1.7475    0.1910 H         1 <0>         0.1492
     26 H5         -2.3760   -2.0693   -1.7746 H         1 <0>         0.4233
     27 H6         -1.5850   -0.6778   -2.2853 H         1 <0>         0.4187
     28 H7          4.4430   -0.1615    0.2016 H         1 <0>         0.4047
     29 H8          3.6143   -1.6206    0.2845 H         1 <0>         0.4073
     30 H9          6.3501    3.8356   -0.5044 H         1 <0>         0.1476
     31 H10         8.0351    3.5853   -3.1378 H         1 <0>         0.1310
     32 H11         8.3627    4.7520   -1.7475 H         1 <0>         0.1110
     33 H12         8.6355    2.7889   -0.1645 H         1 <0>         0.1136
     34 H13         8.3078    1.6222   -1.5548 H         1 <0>         0.0997
@<TRIPOS>BOND
     1    1    6 ar
     2    1    2 ar
     3    1   23 1
     4    2    3 ar
     5    2   24 1
     6    3    4 ar
     7    3   12 1
     8    4    5 ar
     9    4   11 1
    10    5    6 ar
    11    5   25 1
    12    6    7 1
    13    7    8 2
    14    7    9 2
    15    7   10 1
    16   10   26 1
    17   10   27 1
    18   11   28 1
    19   11   29 1
    20   12   13 1
    21   13   19 1
    22   13   14 2
    23   14   15 1
    24   15   16 1
    25   15   17 am
    26   17   18 2
    27   17   19 am
    28   19   20 1
    29   20   22 1
    30   20   21 1
    31   20   30 1
    32   21   22 1
    33   21   31 1
    34   21   32 1
    35   22   33 1
    36   22   34 1
@<TRIPOS>MOLECULE
ZINC20505355
   31    32     0     0     0
SMALL
USER_CHARGES
(3S)-3-[(2,4,6-trichlorophenyl)amino]azepan-2-one
@<TRIPOS>ATOM
      1 C1          1.6715    6.0069   -3.4200 C.ar      1 <0>        -0.0771
      2 C2          1.8925    7.1209   -2.6295 C.ar      1 <0>        -0.0349
      3 C3          1.7254    7.0439   -1.2581 C.ar      1 <0>        -0.0788
      4 C4          1.3370    5.8530   -0.6736 C.ar      1 <0>        -0.0449
      5 C5          1.1143    4.7326   -1.4646 C.ar      1 <0>         0.2064
      6 C6          1.2880    4.8118   -2.8409 C.ar      1 <0>        -0.0487
      7 Cl1         1.0174    3.4130   -3.8327 Cl        1 <0>        -0.0320
      8 N1          0.7216    3.5258   -0.8760 N.pl3     1 <0>        -0.7687
      9 C7         -0.5814    3.0871   -1.3935 C.3       1 <0>         0.1222
     10 H1         -0.6295    3.4004   -2.4468 H         1 <0>         0.1182
     11 C8         -0.7052    1.5680   -1.2538 C.3       1 <0>        -0.1180
     12 C9         -0.0127    1.0858    0.0080 C.3       1 <0>        -0.1204
     13 C10        -0.6809    1.5543    1.2878 C.3       1 <0>        -0.1507
     14 C11        -0.5491    3.0700    1.4478 C.3       1 <0>         0.0888
     15 N2         -1.6646    3.7152    0.7364 N.am      1 <0>        -0.7212
     16 C12        -1.6942    3.7350   -0.5968 C.2       1 <0>         0.5076
     17 O1         -2.6153    4.2741   -1.1730 O.2       1 <0>        -0.5526
     18 Cl2         1.1282    5.7572    1.0472 Cl        1 <0>        -0.0394
     19 Cl3         2.3810    8.6182   -3.3599 Cl        1 <0>        -0.0443
     20 H2          1.8027    6.0701   -4.4901 H         1 <0>         0.1520
     21 H3          1.8990    7.9150   -0.6437 H         1 <0>         0.1506
     22 H4          1.2474    2.9190   -0.1241 H         1 <0>         0.4422
     23 H5         -1.7683    1.2898   -1.2038 H         1 <0>         0.0774
     24 H6         -0.2392    1.0807   -2.1229 H         1 <0>         0.0821
     25 H7         -0.0067   -0.0140    0.0255 H         1 <0>         0.0761
     26 H8          1.0221    1.4584    0.0236 H         1 <0>         0.0632
     27 H9         -1.7490    1.2927    1.2607 H         1 <0>         0.0729
     28 H10        -0.2052    1.0646    2.1503 H         1 <0>         0.0781
     29 H11        -0.5851    3.3304    2.5159 H         1 <0>         0.0801
     30 H12         0.4092    3.4018    1.0216 H         1 <0>         0.0961
     31 H13        -2.4809    4.1851    1.3046 H         1 <0>         0.4178
@<TRIPOS>BOND
     1    1    6 ar
     2    1    2 ar
     3    1   20 1
     4    2    3 ar
     5    2   19 1
     6    3    4 ar
     7    3   21 1
     8    4    5 ar
     9    4   18 1
    10    5    6 ar
    11    5    8 1
    12    6    7 1
    13    8    9 1
    14    8   22 1
    15    9   10 1
    16    9   16 1
    17    9   11 1
    18   11   12 1
    19   11   23 1
    20   11   24 1
    21   12   13 1
    22   12   25 1
    23   12   26 1
    24   13   14 1
    25   13   27 1
    26   13   28 1
    27   14   15 1
    28   14   29 1
    29   14   30 1
    30   15   16 am
    31   15   31 1
    32   16   17 2
@<TRIPOS>MOLECULE
ZINC36936982
   33    35     0     0     0
SMALL
USER_CHARGES

@<TRIPOS>ATOM
      1 C1         -0.0184    1.5028    0.0103 C.3       1 <0>        -0.1320
      2 C2          0.0021   -0.0041    0.0020 C.ar      1 <0>        -0.0441
      3 C3          0.0057   -0.6890   -1.1964 C.ar      1 <0>        -0.1269
      4 C4          0.0244   -2.0718   -1.2055 C.ar      1 <0>        -0.0920
      5 C5          0.0396   -2.7764   -0.0150 C.ar      1 <0>        -0.1306
      6 C6          0.0361   -2.1020    1.1889 C.ar      1 <0>        -0.0799
      7 C7          0.0231   -0.7084    1.2040 C.ar      1 <0>        -0.0468
      8 C8          0.0254    0.0222    2.4952 C.2       1 <0>         0.2066
      9 C9          0.0521   -0.5749    3.8322 C.2       1 <0>        -0.3173
     10 C10         0.0446    0.4710    4.7333 C.2       1 <0>         0.3804
     11 O1          0.0160    1.6170    4.0360 O.3       1 <0>        -0.1134
     12 N1          0.0097    1.3243    2.6533 N.2       1 <0>        -0.3099
     13 N2          0.0633    0.3579    6.1081 N.pl3     1 <0>        -0.8091
     14 C11         0.0811   -2.0207    4.1551 C.ar      1 <0>         0.0153
     15 C12         1.3006   -2.6815    4.2984 C.ar      1 <0>        -0.0829
     16 C13         1.3219   -4.0278    4.5996 C.ar      1 <0>        -0.1050
     17 C14         0.1354   -4.7235    4.7591 C.ar      1 <0>        -0.0228
     18 C15        -1.0785   -4.0735    4.6181 C.ar      1 <0>        -0.1044
     19 C16        -1.1119   -2.7249    4.3225 C.ar      1 <0>        -0.0165
     20 Cl1        -2.6348   -1.9089    4.1529 Cl        1 <0>        -0.0449
     21 Cl2         0.1704   -6.4176    5.1369 Cl        1 <0>        -0.0536
     22 H1          1.0042    1.8801    0.0026 H         1 <0>         0.0760
     23 H2         -0.5455    1.8639   -0.8728 H         1 <0>         0.0687
     24 H3         -0.5286    1.8543    0.9071 H         1 <0>         0.0951
     25 H4         -0.0064   -0.1440   -2.1288 H         1 <0>         0.1294
     26 H5          0.0269   -2.6037   -2.1455 H         1 <0>         0.1278
     27 H6          0.0538   -3.8562   -0.0279 H         1 <0>         0.1281
     28 H7          0.0479   -2.6531    2.1177 H         1 <0>         0.1305
     29 H8          0.0838   -0.5190    6.5223 H         1 <0>         0.4261
     30 H9          0.0560    1.1552    6.6605 H         1 <0>         0.4148
     31 H10         2.2269   -2.1404    4.1736 H         1 <0>         0.1434
     32 H11         2.2661   -4.5402    4.7108 H         1 <0>         0.1434
     33 H12        -2.0010   -4.6209    4.7436 H         1 <0>         0.1465
@<TRIPOS>BOND
     1    1    2 1
     2    1   22 1
     3    1   23 1
     4    1   24 1
     5    2    7 ar
     6    2    3 ar
     7    3    4 ar
     8    3   25 1
     9    4    5 ar
    10    4   26 1
    11    5    6 ar
    12    5   27 1
    13    6    7 ar
    14    6   28 1
    15    7    8 1
    16    8   12 2
    17    8    9 1
    18    9   10 2
    19    9   14 1
    20   10   11 1
    21   10   13 1
    22   11   12 1
    23   13   29 1
    24   13   30 1
    25   14   19 ar
    26   14   15 ar
    27   15   16 ar
    28   15   31 1
    29   16   17 ar
    30   16   32 1
    31   17   18 ar
    32   17   21 1
    33   18   19 ar
    34   18   33 1
    35   19   20 1
@<TRIPOS>MOLECULE
ZINC37421437
   30    32     0     0     0
SMALL
USER_CHARGES

@<TRIPOS>ATOM
      1 C1         -0.0184    1.5028    0.0103 C.3       1 <0>        -0.1211
      2 C2          0.0021   -0.0041    0.0020 C.ar      1 <0>        -0.0585
      3 C3          0.0057   -0.6875   -1.2003 C.ar      1 <0>        -0.0973
      4 C4          0.0244   -2.0684   -1.2117 C.ar      1 <0>        -0.0891
      5 C5          0.0396   -2.7711   -0.0144 C.ar      1 <0>         0.1259
      6 C6          0.0359   -2.0823    1.1918 C.ar      1 <0>        -0.0760
      7 C7          0.0229   -0.7002    1.1963 C.ar      1 <0>        -0.0867
      8 Br1         0.0559   -3.0342    2.8257 Br        1 <0>        -0.0224
      9 N1          0.0581   -4.1726   -0.0227 N.pl3     1 <0>        -0.4720
     10 C8         -1.0470   -5.0102   -0.0278 C.ar      1 <0>         0.0765
     11 C9         -2.4172   -4.7939   -0.0261 C.ar      1 <0>        -0.1074
     12 C10        -3.2828   -5.8680   -0.0327 C.ar      1 <0>        -0.0884
     13 C11        -2.7926   -7.1656   -0.0409 C.ar      1 <0>        -0.1523
     14 C12        -1.4338   -7.3996   -0.0422 C.ar      1 <0>         0.1355
     15 C13        -0.5438   -6.3206   -0.0361 C.ar      1 <0>         0.0542
     16 N2          0.8131   -6.2295   -0.0358 N.2       1 <0>        -0.5317
     17 C14         1.1699   -4.9698   -0.0335 C.2       1 <0>         0.5643
     18 N3          2.4722   -4.5144   -0.0374 N.pl3     1 <0>        -0.8239
     19 F1         -0.9638   -8.6662   -0.0503 F         1 <0>        -0.1299
     20 H1          1.0042    1.8801    0.0026 H         1 <0>         0.0806
     21 H2         -0.5455    1.8639   -0.8728 H         1 <0>         0.0756
     22 H3         -0.5286    1.8543    0.9071 H         1 <0>         0.0744
     23 H4         -0.0065   -0.1406   -2.1315 H         1 <0>         0.1416
     24 H5          0.0269   -2.6012   -2.1511 H         1 <0>         0.1395
     25 H6          0.0248   -0.1636    2.1336 H         1 <0>         0.1437
     26 H7         -2.8057   -3.7862   -0.0194 H         1 <0>         0.1245
     27 H8         -4.3493   -5.6975   -0.0311 H         1 <0>         0.1403
     28 H9         -3.4801   -7.9985   -0.0460 H         1 <0>         0.1425
     29 H10         2.6528   -3.5614   -0.0324 H         1 <0>         0.4102
     30 H11         3.2073   -5.1473   -0.0451 H         1 <0>         0.4274
@<TRIPOS>BOND
     1    1    2 1
     2    1   20 1
     3    1   21 1
     4    1   22 1
     5    2    7 ar
     6    2    3 ar
     7    3    4 ar
     8    3   23 1
     9    4    5 ar
    10    4   24 1
    11    5    6 ar
    12    5    9 1
    13    6    7 ar
    14    6    8 1
    15    7   25 1
    16    9   17 1
    17    9   10 1
    18   10   15 ar
    19   10   11 ar
    20   11   12 ar
    21   11   26 1
    22   12   13 ar
    23   12   27 1
    24   13   14 ar
    25   13   28 1
    26   14   15 ar
    27   14   19 1
    28   15   16 1
    29   16   17 2
    30   17   18 1
    31   18   29 1
    32   18   30 1
@<TRIPOS>MOLECULE
ZINC54555733
   47    49     0     0     0
SMALL
USER_CHARGES

@<TRIPOS>ATOM
      1 C1         -0.0187    1.5258    0.0104 C.3       1 <0>        -0.1510
      2 C2          0.0021   -0.0041    0.0020 C.3       1 <0>        -0.0924
      3 C3         -1.4333   -0.5336    0.0129 C.3       1 <0>        -0.1510
      4 C4          0.7182   -0.4975   -1.2568 C.3       1 <0>        -0.0832
      5 C5          2.1536    0.0321   -1.2676 C.3       1 <0>        -0.1130
      6 C6          2.8697   -0.4613   -2.5264 C.3       1 <0>        -0.1257
      7 C7          2.8905   -1.9912   -2.5349 C.3       1 <0>         0.1533
      8 C8          1.4551   -2.5207   -2.5240 C.3       1 <0>        -0.1342
      9 C9          0.7390   -2.0273   -1.2652 C.3       1 <0>        -0.1150
     10 N1          3.5762   -2.4636   -3.7402 N.pl3     1 <0>        -0.7441
     11 C10         4.1835   -3.7238   -3.7509 C.ar      1 <0>         0.2050
     12 C11         4.1315   -4.5296   -2.6206 C.ar      1 <0>        -0.1699
     13 C12         4.7313   -5.7729   -2.6307 C.ar      1 <0>        -0.0982
     14 C13         5.3862   -6.2183   -3.7713 C.ar      1 <0>         0.0948
     15 C14         5.4375   -5.4132   -4.9014 C.ar      1 <0>        -0.0709
     16 C15         4.8335   -4.1718   -4.8935 C.ar      1 <0>        -0.1628
     17 C16         6.1479   -5.9005   -6.1375 C.3       1 <0>        -0.0790
     18 C17         7.3477   -6.7579   -5.7333 C.3       1 <0>        -0.1377
     19 C18         6.9275   -7.7767   -4.7085 C.2       1 <0>         0.5190
     20 O1          7.4350   -8.8784   -4.7154 O.2       1 <0>        -0.5346
     21 N2          5.9955   -7.4796   -3.7846 N.am      1 <0>        -0.6607
     22 H1          1.0039    1.9031    0.0027 H         1 <0>         0.0571
     23 H2         -0.5459    1.8868   -0.8726 H         1 <0>         0.0536
     24 H3         -0.5289    1.8773    0.9072 H         1 <0>         0.0534
     25 H4          0.5293   -0.3651    0.8851 H         1 <0>         0.0691
     26 H5         -1.9605   -0.1726   -0.8702 H         1 <0>         0.0536
     27 H6         -1.4185   -1.6235    0.0069 H         1 <0>         0.0573
     28 H7         -1.9435   -0.1821    0.9097 H         1 <0>         0.0534
     29 H8          0.1910   -0.1364   -2.1398 H         1 <0>         0.0704
     30 H9          2.1388    1.1220   -1.2617 H         1 <0>         0.0706
     31 H10         2.6808   -0.3290   -0.3846 H         1 <0>         0.0644
     32 H11         2.3426   -0.1002   -3.4095 H         1 <0>         0.0666
     33 H12         3.8923   -0.0840   -2.5342 H         1 <0>         0.0681
     34 H13         3.4177   -2.3522   -1.6518 H         1 <0>         0.0782
     35 H14         0.9279   -2.1597   -3.4071 H         1 <0>         0.0643
     36 H15         1.4699   -3.6106   -2.5300 H         1 <0>         0.0656
     37 H16         1.2661   -2.3884   -0.3821 H         1 <0>         0.0626
     38 H17        -0.2836   -2.4046   -1.2575 H         1 <0>         0.0685
     39 H18         3.6091   -1.9026   -4.5308 H         1 <0>         0.3986
     40 H19         3.6220   -4.1832   -1.7336 H         1 <0>         0.1271
     41 H20         4.6916   -6.3989   -1.7516 H         1 <0>         0.1268
     42 H21         4.8701   -3.5476   -5.7740 H         1 <0>         0.1266
     43 H22         5.4620   -6.4965   -6.7394 H         1 <0>         0.0842
     44 H23         6.4922   -5.0455   -6.7193 H         1 <0>         0.0911
     45 H24         7.7398   -7.2691   -6.6125 H         1 <0>         0.1083
     46 H25         8.1236   -6.1189   -5.3116 H         1 <0>         0.1029
     47 H26         5.7441   -8.1431   -3.1231 H         1 <0>         0.4087
@<TRIPOS>BOND
     1    1    2 1
     2    1   22 1
     3    1   23 1
     4    1   24 1
     5    2    3 1
     6    2    4 1
     7    2   25 1
     8    3   26 1
     9    3   27 1
    10    3   28 1
    11    4    9 1
    12    4    5 1
    13    4   29 1
    14    5    6 1
    15    5   30 1
    16    5   31 1
    17    6    7 1
    18    6   32 1
    19    6   33 1
    20    7    8 1
    21    7   10 1
    22    7   34 1
    23    8    9 1
    24    8   35 1
    25    8   36 1
    26    9   37 1
    27    9   38 1
    28   10   11 1
    29   10   39 1
    30   11   16 ar
    31   11   12 ar
    32   12   13 ar
    33   12   40 1
    34   13   14 ar
    35   13   41 1
    36   14   21 1
    37   14   15 ar
    38   15   16 ar
    39   15   17 1
    40   16   42 1
    41   17   18 1
    42   17   43 1
    43   17   44 1
    44   18   19 1
    45   18   45 1
    46   18   46 1
    47   19   20 2
    48   19   21 am
    49   21   47 1
@<TRIPOS>MOLECULE
ZINC62824368
   26    28     0     0     0
SMALL
USER_CHARGES

@<TRIPOS>ATOM
      1 C1          0.1966    1.5063    0.4062 C.ar      1 <0>        -0.1172
      2 C2          0.9374    1.9460   -0.6810 C.ar      1 <0>        -0.0908
      3 C3          1.9274    1.1512   -1.2211 C.ar      1 <0>        -0.0929
      4 C4          2.1865   -0.0964   -0.6754 C.ar      1 <0>         0.0059
      5 C5          1.4394   -0.5456    0.4255 C.ar      1 <0>         0.0230
      6 C6          0.4398    0.2701    0.9615 C.ar      1 <0>        -0.0600
      7 N1          1.9085   -1.7813    0.7373 N.2       1 <0>        -0.4614
      8 C7          2.8714   -2.0886   -0.0959 C.2       1 <0>         0.2995
      9 O1          3.0643   -1.0816   -0.9690 O.3       1 <0>        -0.2118
     10 C8          3.6326   -3.3528   -0.0803 C.ar      1 <0>        -0.1127
     11 C9          2.9634   -4.5741    0.0190 C.ar      1 <0>         0.0181
     12 C10         3.6803   -5.7522    0.0325 C.ar      1 <0>        -0.1635
     13 C11         5.0633   -5.7303   -0.0520 C.ar      1 <0>        -0.0091
     14 C12         5.7381   -4.5299   -0.1507 C.ar      1 <0>        -0.1946
     15 C13         5.0322   -3.3346   -0.1711 C.ar      1 <0>         0.2754
     16 N2          5.7104   -2.1236   -0.2759 N.pl3     1 <0>        -0.8580
     17 I1          2.6739   -7.5834    0.1823 I         1 <0>        -0.0345
     18 H1         -0.5728    2.1395    0.8226 H         1 <0>         0.1400
     19 H2          0.7376    2.9177   -1.1080 H         1 <0>         0.1428
     20 H3          2.4994    1.5003   -2.0680 H         1 <0>         0.1365
     21 H4         -0.1400   -0.0678    1.8076 H         1 <0>         0.1383
     22 H5          1.8857   -4.5963    0.0855 H         1 <0>         0.1389
     23 H6          5.6166   -6.6577   -0.0403 H         1 <0>         0.1375
     24 H7          6.8161   -4.5209   -0.2159 H         1 <0>         0.1407
     25 H8          5.2256   -1.2874   -0.1938 H         1 <0>         0.4022
     26 H9          6.6679   -2.1158   -0.4311 H         1 <0>         0.4079
@<TRIPOS>BOND
     1    1    6 ar
     2    1    2 ar
     3    1   18 1
     4    2    3 ar
     5    2   19 1
     6    3    4 ar
     7    3   20 1
     8    4    9 1
     9    4    5 ar
    10    5    6 ar
    11    5    7 1
    12    6   21 1
    13    7    8 2
    14    8    9 1
    15    8   10 1
    16   10   15 ar
    17   10   11 ar
    18   11   12 ar
    19   11   22 1
    20   12   13 ar
    21   12   17 1
    22   13   14 ar
    23   13   23 1
    24   14   15 ar
    25   14   24 1
    26   15   16 1
    27   16   25 1
    28   16   26 1
@<TRIPOS>MOLECULE
ZINC35721738
   39    40     0     0     0
SMALL
USER_CHARGES

@<TRIPOS>ATOM
      1 C1          0.0194    1.4285    0.0049 C.3       1 <0>        -0.1705
      2 C2         -0.0020   -0.1013    0.0132 C.3       1 <0>         0.1144
      3 N1         -1.3831   -0.5696    0.1522 N.am      1 <0>        -0.6061
      4 C3         -2.1617   -0.9184   -1.0388 C.3       1 <0>         0.1623
      5 C4         -1.9652   -2.3781   -1.3577 C.2       1 <0>        -0.1523
      6 C5         -2.8237   -3.2655   -0.9199 C.2       1 <0>        -0.1717
      7 C6         -0.7812   -2.8170   -2.1802 C.3       1 <0>        -0.1111
      8 C7         -1.9375   -0.6796    1.3757 C.2       1 <0>         0.5542
      9 O1         -3.0431   -1.1627    1.4994 O.2       1 <0>        -0.5125
     10 C8         -1.1836   -0.2024    2.5902 C.3       1 <0>        -0.0938
     11 H1         -0.1672    0.0845    2.3206 H         1 <0>         0.0751
     12 C9         -1.1677   -1.3061    3.6954 C.3       1 <0>        -0.0637
     13 H2         -0.4567   -2.1202    3.5545 H         1 <0>         0.0866
     14 C10        -0.9786   -0.4189    4.9799 C.3       1 <0>        -0.1235
     15 C11        -2.2644    0.4383    4.6885 C.3       1 <0>        -0.0506
     16 H3         -2.5421    1.1749    5.4425 H         1 <0>         0.0893
     17 C12        -1.9238    0.9811    3.2601 C.3       1 <0>        -0.1440
     18 H4         -1.2730    1.8530    3.3245 H         1 <0>         0.0645
     19 C13        -3.1843    1.3138    2.5040 C.2       1 <0>         0.5096
     20 O2         -4.2579    1.3206    3.0818 O.co2     1 <0>        -0.6840
     21 O3         -3.1304    1.5761    1.3146 O.co2     1 <0>        -0.6924
     22 C14        -3.2750   -0.6861    4.4313 C.2       1 <0>        -0.1080
     23 C15        -2.6405   -1.7073    3.8431 C.2       1 <0>        -0.1767
     24 H5          1.0520    1.7774   -0.0096 H         1 <0>         0.0509
     25 H6         -0.5001    1.7943   -0.8808 H         1 <0>         0.0551
     26 H7         -0.4784    1.8037    0.8990 H         1 <0>         0.0732
     27 H8          0.4163   -0.4756   -0.9211 H         1 <0>         0.0673
     28 H9          0.5921   -0.4684    0.8501 H         1 <0>         0.0671
     29 H10        -3.2181   -0.7264   -0.8513 H         1 <0>         0.0871
     30 H11        -1.8266   -0.3140   -1.8817 H         1 <0>         0.0676
     31 H12        -2.6829   -4.3116   -1.1484 H         1 <0>         0.0881
     32 H13        -3.6722   -2.9510   -0.3304 H         1 <0>         0.1066
     33 H14        -0.1843   -1.9461   -2.4512 H         1 <0>         0.0572
     34 H15        -0.1715   -3.5088   -1.5991 H         1 <0>         0.0588
     35 H16        -1.1314   -3.3133   -3.0852 H         1 <0>         0.0601
     36 H17        -1.0610   -0.9952    5.9013 H         1 <0>         0.0689
     37 H18        -0.0648    0.1745    4.9467 H         1 <0>         0.0654
     38 H19        -4.3262   -0.6590    4.6774 H         1 <0>         0.1163
     39 H20        -3.0727   -2.6481    3.5359 H         1 <0>         0.1154
@<TRIPOS>BOND
     1    1    2 1
     2    1   24 1
     3    1   25 1
     4    1   26 1
     5    2    3 1
     6    2   27 1
     7    2   28 1
     8    3    4 1
     9    3    8 am
    10    4    5 1
    11    4   29 1
    12    4   30 1
    13    5    6 2
    14    5    7 1
    15    6   31 1
    16    6   32 1
    17    7   33 1
    18    7   34 1
    19    7   35 1
    20    8    9 2
    21    8   10 1
    22   10   11 1
    23   10   17 1
    24   10   12 1
    25   12   13 1
    26   12   23 1
    27   12   14 1
    28   14   15 1
    29   14   36 1
    30   14   37 1
    31   15   16 1
    32   15   17 1
    33   15   22 1
    34   17   18 1
    35   17   19 1
    36   19   20 2
    37   19   21 1
    38   22   23 2
    39   22   38 1
    40   23   39 1
@<TRIPOS>MOLECULE
ZINC37831956
   33    33     0     0     0
SMALL
USER_CHARGES

@<TRIPOS>ATOM
      1 C1          1.0330    0.6671   -4.8203 C.3       1 <0>        -0.1428
      2 C2          0.9635   -0.6485   -4.0423 C.3       1 <0>        -0.1134
      3 C3          2.2379   -0.8186   -3.2130 C.3       1 <0>        -0.1494
      4 C4         -0.2512   -0.6274   -3.1123 C.3       1 <0>         0.1184
      5 N1         -0.3867   -1.9303   -2.4563 N.am      1 <0>        -0.6104
      6 C5          0.2814   -2.1790   -1.1765 C.3       1 <0>         0.0709
      7 C6         -0.6535   -1.7910   -0.0292 C.3       1 <0>         0.4218
      8 F1         -1.8227   -2.5559   -0.1014 F         1 <0>        -0.1474
      9 F2         -0.0155   -2.0285    1.1930 F         1 <0>        -0.1936
     10 F3         -0.9772   -0.4337   -0.1302 F         1 <0>        -0.1849
     11 C7         -1.1259   -2.9001   -3.0303 C.2       1 <0>         0.5642
     12 O1         -1.6790   -2.6942   -4.0898 O.2       1 <0>        -0.5053
     13 C8         -1.2653   -4.2404   -2.3555 C.3       1 <0>        -0.1964
     14 H1         -0.4816   -4.4904   -1.6403 H         1 <0>         0.1048
     15 C9         -1.8653   -5.3848   -3.1748 C.3       1 <0>        -0.1373
     16 C10        -2.6811   -4.7357   -2.0539 C.3       1 <0>        -0.1608
     17 H2         -2.8288   -5.3119   -1.1405 H         1 <0>         0.1008
     18 C11        -3.8296   -3.8459   -2.4544 C.2       1 <0>         0.5212
     19 O2         -4.6190   -4.2160   -3.3067 O.co2     1 <0>        -0.6898
     20 O3         -3.9693   -2.7560   -1.9261 O.co2     1 <0>        -0.6807
     21 H3          1.8984    0.6521   -5.4829 H         1 <0>         0.0549
     22 H4          0.1251    0.7883   -5.4111 H         1 <0>         0.0584
     23 H5          1.1252    1.4982   -4.1211 H         1 <0>         0.0545
     24 H6          0.8713   -1.4796   -4.7415 H         1 <0>         0.0759
     25 H7          2.1884   -1.7558   -2.6588 H         1 <0>         0.0551
     26 H8          3.1033   -0.8336   -3.8756 H         1 <0>         0.0542
     27 H9          2.3300    0.0125   -2.5138 H         1 <0>         0.0542
     28 H10        -0.1173    0.1473   -2.3573 H         1 <0>         0.0773
     29 H11        -1.1497   -0.4177   -3.6927 H         1 <0>         0.0904
     30 H12         0.5337   -3.2365   -1.0978 H         1 <0>         0.1209
     31 H13         1.1924   -1.5831   -1.1203 H         1 <0>         0.1197
     32 H14        -2.1593   -5.1683   -4.2018 H         1 <0>         0.1043
     33 H15        -1.4767   -6.3878   -2.9983 H         1 <0>         0.0902
@<TRIPOS>BOND
     1    1    2 1
     2    1   21 1
     3    1   22 1
     4    1   23 1
     5    2    3 1
     6    2    4 1
     7    2   24 1
     8    3   25 1
     9    3   26 1
    10    3   27 1
    11    4    5 1
    12    4   28 1
    13    4   29 1
    14    5    6 1
    15    5   11 am
    16    6    7 1
    17    6   30 1
    18    6   31 1
    19    7    8 1
    20    7    9 1
    21    7   10 1
    22   11   12 2
    23   11   13 1
    24   13   14 1
    25   13   16 1
    26   13   15 1
    27   15   16 1
    28   15   32 1
    29   15   33 1
    30   16   17 1
    31   16   18 1
    32   18   19 2
    33   18   20 1
@<TRIPOS>MOLECULE
ZINC49594656
   32    33     0     0     0
SMALL
USER_CHARGES

@<TRIPOS>ATOM
      1 C1         -0.0780    1.4608    0.0127 C.3       1 <0>         0.0656
      2 N1         -0.0189   -0.0029    0.0030 N.am      1 <0>        -0.6119
      3 C2          0.1300   -0.7383    1.2613 C.3       1 <0>         0.1513
      4 C3         -1.2531   -1.0531    1.8348 C.3       1 <0>        -0.1672
      5 C4         -1.6193   -0.4253    3.1811 C.3       1 <0>        -0.1810
      6 C5         -1.3153   -1.9221    3.0925 C.3       1 <0>        -0.1735
      7 C6         -0.1016   -0.6730   -1.1634 C.2       1 <0>         0.6098
      8 O1         -0.1578   -1.8881   -1.1641 O.2       1 <0>        -0.5323
      9 C7         -0.1239    0.0648   -2.4352 C.2       1 <0>        -0.2696
     10 C8         -0.3228   -0.4201   -3.7211 C.2       1 <0>        -0.0513
     11 C9         -0.3025    0.4582   -4.7645 C.2       1 <0>        -0.1982
     12 C10        -0.0827    1.8070   -4.4970 C.2       1 <0>        -0.0631
     13 S1          0.0900    1.8141   -2.7201 S.3       1 <0>         0.1089
     14 C11        -0.0160    2.9296   -5.4307 C.2       1 <0>        -0.0943
     15 C12         0.2099    4.1843   -4.9677 C.2       1 <0>        -0.1296
     16 C13         0.2745    5.2698   -5.8706 C.2       1 <0>         0.4984
     17 O2          0.1263    5.0773   -7.0717 O.co2     1 <0>        -0.6871
     18 O3          0.4786    6.4033   -5.4524 O.co2     1 <0>        -0.6900
     19 H1          0.9149    1.8658   -0.1829 H         1 <0>         0.0665
     20 H2         -0.7680    1.8017   -0.7592 H         1 <0>         0.0806
     21 H3         -0.4248    1.8041    0.9874 H         1 <0>         0.0855
     22 H4          0.6672   -1.6687    1.0770 H         1 <0>         0.0889
     23 H5          0.6888   -0.1309    1.9732 H         1 <0>         0.0809
     24 H6         -2.0504   -1.1719    1.1011 H         1 <0>         0.1064
     25 H7         -0.8748    0.2121    3.6583 H         1 <0>         0.0948
     26 H8         -2.6576   -0.1307    3.3333 H         1 <0>         0.0929
     27 H9         -2.1537   -2.6123    3.1864 H         1 <0>         0.0944
     28 H10        -0.3709   -2.2696    3.5114 H         1 <0>         0.0954
     29 H11        -0.4902   -1.4733   -3.8920 H         1 <0>         0.1390
     30 H12        -0.4533    0.1147   -5.7773 H         1 <0>         0.1405
     31 H13        -0.1466    2.7600   -6.4893 H         1 <0>         0.1483
     32 H14         0.3405    4.3539   -3.9092 H         1 <0>         0.1013
@<TRIPOS>BOND
     1    1    2 1
     2    1   19 1
     3    1   20 1
     4    1   21 1
     5    2    3 1
     6    2    7 am
     7    3    4 1
     8    3   22 1
     9    3   23 1
    10    4    6 1
    11    4    5 1
    12    4   24 1
    13    5    6 1
    14    5   25 1
    15    5   26 1
    16    6   27 1
    17    6   28 1
    18    7    8 2
    19    7    9 1
    20    9   13 1
    21    9   10 2
    22   10   11 1
    23   10   29 1
    24   11   12 2
    25   11   30 1
    26   12   13 1
    27   12   14 1
    28   14   15 2
    29   14   31 1
    30   15   16 1
    31   15   32 1
    32   16   17 2
    33   16   18 1
@<TRIPOS>MOLECULE
ZINC53198720
   38    39     0     0     0
SMALL
USER_CHARGES

@<TRIPOS>ATOM
      1 C1          1.3036   -2.8271   -1.7331 C.3       1 <0>        -0.1749
      2 C2          1.7618   -1.4220   -1.3373 C.3       1 <0>         0.0373
      3 C3          2.2431   -1.4328    0.1150 C.3       1 <0>         0.0966
      4 O1          3.3350   -2.3450    0.2482 O.3       1 <0>        -0.3582
      5 C4          3.8621   -2.4311    1.5736 C.3       1 <0>         0.0332
      6 C5          2.8904   -0.9894   -2.2374 C.2       1 <0>         0.4860
      7 O2          2.8861    0.1273   -2.7267 O.co2     1 <0>        -0.6604
      8 O3          3.8077   -1.7562   -2.4763 O.co2     1 <0>        -0.6811
      9 O4          0.6699   -0.5099   -1.4704 O.3       1 <0>        -0.3674
     10 C6          0.1927   -0.3660   -2.8097 C.3       1 <0>         0.1504
     11 H1         -0.8973   -0.3592   -2.8040 H         1 <0>         0.0778
     12 C7          0.6846   -1.5436   -3.6488 C.3       1 <0>        -0.1829
     13 C8          0.3508   -1.2629   -5.1187 C.3       1 <0>        -0.1154
     14 C9          1.2458   -0.1257   -5.6070 C.3       1 <0>        -0.0768
     15 C10         1.1738    1.0469   -4.6642 C.ar      1 <0>        -0.0496
     16 C11         0.6945    0.9353   -3.3787 C.ar      1 <0>        -0.0224
     17 C12         0.6619    2.0552   -2.5582 C.ar      1 <0>        -0.0933
     18 C13         1.1029    3.2775   -3.0221 C.ar      1 <0>        -0.1341
     19 C14         1.5811    3.3893   -4.3141 C.ar      1 <0>        -0.1356
     20 C15         1.6148    2.2788   -5.1296 C.ar      1 <0>        -0.1271
     21 H2          0.2470   -2.9459   -1.4931 H         1 <0>         0.0429
     22 H3          1.4513   -2.9693   -2.8037 H         1 <0>         0.0849
     23 H4          1.8862   -3.5673   -1.1845 H         1 <0>         0.0592
     24 H5          2.5695   -0.4317    0.3970 H         1 <0>         0.0454
     25 H6          1.4268   -1.7457    0.7660 H         1 <0>         0.0388
     26 H7          4.6869   -3.1435    1.5911 H         1 <0>         0.0814
     27 H8          4.2221   -1.4508    1.8859 H         1 <0>         0.0345
     28 H9          3.0794   -2.7647    2.2549 H         1 <0>         0.0316
     29 H10         1.7628   -1.6528   -3.5316 H         1 <0>         0.1191
     30 H11         0.1855   -2.4576   -3.3270 H         1 <0>         0.0790
     31 H12         0.5353   -2.1570   -5.7143 H         1 <0>         0.0617
     32 H13        -0.6956   -0.9710   -5.2083 H         1 <0>         0.0562
     33 H14         2.2757   -0.4781   -5.6644 H         1 <0>         0.0765
     34 H15         0.9186    0.1892   -6.5979 H         1 <0>         0.0602
     35 H16         0.2878    1.9688   -1.5487 H         1 <0>         0.1098
     36 H17         1.0749    4.1438   -2.3778 H         1 <0>         0.1056
     37 H18         1.9257    4.3438   -4.6837 H         1 <0>         0.1055
     38 H19         1.9888    2.3673   -6.1389 H         1 <0>         0.1052
@<TRIPOS>BOND
     1    1    2 1
     2    1   21 1
     3    1   22 1
     4    1   23 1
     5    2    3 1
     6    2    6 1
     7    2    9 1
     8    3    4 1
     9    3   24 1
    10    3   25 1
    11    4    5 1
    12    5   26 1
    13    5   27 1
    14    5   28 1
    15    6    7 2
    16    6    8 1
    17    9   10 1
    18   10   11 1
    19   10   16 1
    20   10   12 1
    21   12   13 1
    22   12   29 1
    23   12   30 1
    24   13   14 1
    25   13   31 1
    26   13   32 1
    27   14   15 1
    28   14   33 1
    29   14   34 1
    30   15   20 ar
    31   15   16 ar
    32   16   17 ar
    33   17   18 ar
    34   17   35 1
    35   18   19 ar
    36   18   36 1
    37   19   20 ar
    38   19   37 1
    39   20   38 1
@<TRIPOS>MOLECULE
ZINC62914215
   43    44     0     0     0
SMALL
USER_CHARGES

@<TRIPOS>ATOM
      1 C1         -0.0187    1.5258    0.0104 C.3       1 <0>        -0.1573
      2 C2          0.0021   -0.0041    0.0020 C.3       1 <0>        -0.0873
      3 C3         -1.4333   -0.5336    0.0129 C.3       1 <0>        -0.1410
      4 C4         -2.1667   -0.1243   -1.2853 C.3       1 <0>        -0.1064
      5 C5         -2.0211   -1.3845   -2.1749 C.3       1 <0>         0.0982
      6 N1         -2.1567   -2.4994   -1.2093 N.am      1 <0>        -0.6155
      7 C6         -1.4354   -2.0737    0.0046 C.3       1 <0>         0.1156
      8 C7         -2.8071   -3.6643   -1.4005 C.2       1 <0>         0.5242
      9 O1         -2.8382   -4.4937   -0.5162 O.2       1 <0>        -0.5471
     10 C8         -3.4957   -3.9362   -2.7131 C.3       1 <0>        -0.1341
     11 C9         -4.1520   -5.3176   -2.6682 C.3       1 <0>        -0.0959
     12 C10        -4.8511   -5.5937   -4.0009 C.3       1 <0>        -0.0923
     13 C11        -6.0591   -4.6492   -4.1694 C.3       1 <0>        -0.1236
     14 C12        -7.1303   -5.5236   -4.8676 C.3       1 <0>        -0.1256
     15 C13        -6.9361   -6.9047   -4.1939 C.3       1 <0>        -0.1254
     16 C14        -5.4087   -7.0277   -4.0164 C.3       1 <0>        -0.1214
     17 C15        -2.1724   -0.0156    1.2197 C.2       1 <0>         0.5074
     18 O2         -2.3005    1.1853    1.3870 O.co2     1 <0>        -0.6856
     19 O3         -2.6421   -0.7973    2.0289 O.co2     1 <0>        -0.6886
     20 H1          1.0039    1.9031    0.0027 H         1 <0>         0.0299
     21 H2         -0.5459    1.8868   -0.8726 H         1 <0>         0.0450
     22 H3         -0.5289    1.8773    0.9072 H         1 <0>         0.0961
     23 H4          0.5123   -0.3556   -0.8948 H         1 <0>         0.0435
     24 H5          0.5293   -0.3651    0.8851 H         1 <0>         0.0526
     25 H6         -3.2169    0.0875   -1.0850 H         1 <0>         0.0679
     26 H7         -1.6804    0.7338   -1.7492 H         1 <0>         0.0789
     27 H8         -2.8152   -1.4228   -2.9206 H         1 <0>         0.0722
     28 H9         -1.0417   -1.4068   -2.6530 H         1 <0>         0.0676
     29 H10        -0.4114   -2.4462   -0.0221 H         1 <0>         0.0490
     30 H11        -1.9467   -2.4490    0.8911 H         1 <0>         0.1009
     31 H12        -4.2583   -3.1772   -2.8874 H         1 <0>         0.0897
     32 H13        -2.7636   -3.9078   -3.5202 H         1 <0>         0.0867
     33 H14        -3.3894   -6.0767   -2.4939 H         1 <0>         0.0682
     34 H15        -4.8840   -5.3460   -1.8611 H         1 <0>         0.0711
     35 H16        -4.1510   -5.4563   -4.8249 H         1 <0>         0.0700
     36 H17        -6.4174   -4.3108   -3.1972 H         1 <0>         0.0692
     37 H18        -5.7935   -3.7982   -4.7965 H         1 <0>         0.0637
     38 H19        -8.1307   -5.1366   -4.6741 H         1 <0>         0.0633
     39 H20        -6.9396   -5.5861   -5.9389 H         1 <0>         0.0637
     40 H21        -7.4360   -6.9306   -3.2257 H         1 <0>         0.0648
     41 H22        -7.3105   -7.6997   -4.8389 H         1 <0>         0.0608
     42 H23        -4.9798   -7.5861   -4.8486 H         1 <0>         0.0605
     43 H24        -5.1812   -7.5270   -3.0746 H         1 <0>         0.0664
@<TRIPOS>BOND
     1    1    2 1
     2    1   20 1
     3    1   21 1
     4    1   22 1
     5    2    3 1
     6    2   23 1
     7    2   24 1
     8    3    7 1
     9    3    4 1
    10    3   17 1
    11    4    5 1
    12    4   25 1
    13    4   26 1
    14    5    6 1
    15    5   27 1
    16    5   28 1
    17    6    7 1
    18    6    8 am
    19    7   29 1
    20    7   30 1
    21    8    9 2
    22    8   10 1
    23   10   11 1
    24   10   31 1
    25   10   32 1
    26   11   12 1
    27   11   33 1
    28   11   34 1
    29   12   16 1
    30   12   13 1
    31   12   35 1
    32   13   14 1
    33   13   36 1
    34   13   37 1
    35   14   15 1
    36   14   38 1
    37   14   39 1
    38   15   16 1
    39   15   40 1
    40   15   41 1
    41   16   42 1
    42   16   43 1
    43   17   18 2
    44   17   19 1
@<TRIPOS>MOLECULE
ZINC05119697
   41    44     0     0     0
SMALL
USER_CHARGES
N-[(4-phenylphenyl)methyleneamino]phthalazin-1-amine
@<TRIPOS>ATOM
      1 C1        -13.1399    7.9925    0.1606 C.ar      1 <0>        -0.1165
      2 C2        -11.9123    8.6302    0.1528 C.ar      1 <0>        -0.1179
      3 C3        -10.7475    7.8903    0.1386 C.ar      1 <0>        -0.1079
      4 C4        -10.8096    6.4976    0.1323 C.ar      1 <0>        -0.0516
      5 C5        -12.0496    5.8606    0.1344 C.ar      1 <0>        -0.1087
      6 C6        -13.2077    6.6108    0.1544 C.ar      1 <0>        -0.1188
      7 C7         -9.5618    5.6971    0.1171 C.ar      1 <0>        -0.0277
      8 C8         -9.6279    4.3035    0.1108 C.ar      1 <0>        -0.1162
      9 C9         -8.4705    3.5588    0.0967 C.ar      1 <0>        -0.0863
     10 C10        -7.2278    4.1998    0.0888 C.ar      1 <0>        -0.0540
     11 C11        -7.1632    5.5966    0.1010 C.ar      1 <0>        -0.0732
     12 C12        -8.3226    6.3382    0.1097 C.ar      1 <0>        -0.1153
     13 C13        -5.9879    3.4044    0.0737 C.2       1 <0>         0.1004
     14 N1         -4.8339    4.0005    0.0663 N.2       1 <0>        -0.2113
     15 N2         -3.6548    3.2441    0.0520 N.pl3     1 <0>        -0.5518
     16 C14        -2.4249    3.8794    0.0441 C.ar      1 <0>         0.3848
     17 C15        -1.2264    3.1290    0.0296 C.ar      1 <0>        -0.1061
     18 C16        -1.2090    1.7308    0.0172 C.ar      1 <0>        -0.0925
     19 C17        -0.0126    1.0758    0.0080 C.ar      1 <0>        -0.1029
     20 C18         1.1905    1.7776    0.0002 C.ar      1 <0>        -0.0930
     21 C19         1.2096    3.1408    0.0069 C.ar      1 <0>        -0.0922
     22 C20        -0.0012    3.8450    0.0218 C.ar      1 <0>        -0.0474
     23 C21        -0.0638    5.2510    0.0290 C.ar      1 <0>         0.0326
     24 N3         -1.2384    5.8382    0.0425 N.ar      1 <0>        -0.2218
     25 N4         -2.3485    5.1993    0.0496 N.ar      1 <0>        -0.2961
     26 H1        -14.0489    8.5756    0.1714 H         1 <0>         0.1234
     27 H2        -11.8654    9.7091    0.1574 H         1 <0>         0.1253
     28 H3         -9.7897    8.3892    0.1322 H         1 <0>         0.1270
     29 H4        -12.1038    4.7820    0.1247 H         1 <0>         0.1261
     30 H5        -14.1689    6.1184    0.1606 H         1 <0>         0.1249
     31 H6        -10.5879    3.8087    0.1165 H         1 <0>         0.1304
     32 H7         -8.5221    2.4801    0.0922 H         1 <0>         0.1303
     33 H8         -6.2042    6.0932    0.0994 H         1 <0>         0.1399
     34 H9         -8.2731    7.4171    0.1153 H         1 <0>         0.1303
     35 H10        -6.0384    2.3256    0.0687 H         1 <0>         0.1201
     36 H11        -3.7001    2.2751    0.0475 H         1 <0>         0.3962
     37 H12        -2.1347    1.1744    0.0190 H         1 <0>         0.1280
     38 H13         0.0021   -0.0041    0.0020 H         1 <0>         0.1341
     39 H14         2.1232    1.2331   -0.0109 H         1 <0>         0.1353
     40 H15         2.1494    3.6728    0.0012 H         1 <0>         0.1434
     41 H16         0.8420    5.8392    0.0238 H         1 <0>         0.1767
@<TRIPOS>BOND
     1    1    6 ar
     2    1    2 ar
     3    1   26 1
     4    2    3 ar
     5    2   27 1
     6    3    4 ar
     7    3   28 1
     8    4    5 ar
     9    4    7 1
    10    5    6 ar
    11    5   29 1
    12    6   30 1
    13    7   12 ar
    14    7    8 ar
    15    8    9 ar
    16    8   31 1
    17    9   10 ar
    18    9   32 1
    19   10   11 ar
    20   10   13 1
    21   11   12 ar
    22   11   33 1
    23   12   34 1
    24   13   14 2
    25   13   35 1
    26   14   15 1
    27   15   16 1
    28   15   36 1
    29   16   25 ar
    30   16   17 ar
    31   17   22 ar
    32   17   18 ar
    33   18   19 ar
    34   18   37 1
    35   19   20 ar
    36   19   38 1
    37   20   21 ar
    38   20   39 1
    39   21   22 ar
    40   21   40 1
    41   22   23 ar
    42   23   24 ar
    43   23   41 1
    44   24   25 ar
@<TRIPOS>MOLECULE
ZINC09142033
   44    47     0     0     0
SMALL
USER_CHARGES
4-methyl-N-[3-(2-oxochromen-3-yl)phenyl]-benzamide
@<TRIPOS>ATOM
      1 C1          0.2375   -4.2681    0.7122 C.3       1 <0>        -0.1225
      2 C2          0.2367   -2.7612    0.7185 C.ar      1 <0>        -0.0543
      3 C3         -0.6946   -2.0761    1.4785 C.ar      1 <0>        -0.1286
      4 C4         -0.7008   -0.6966    1.4887 C.ar      1 <0>        -0.0506
      5 C5          0.2356    0.0081    0.7304 C.ar      1 <0>        -0.1460
      6 C6          1.1693   -0.6893   -0.0380 C.ar      1 <0>        -0.0803
      7 C7          1.1676   -2.0688   -0.0355 C.ar      1 <0>        -0.1283
      8 C8          0.2345    1.4862    0.7361 C.2       1 <0>         0.5622
      9 O1         -0.5863    2.0908    1.3984 O.2       1 <0>        -0.5140
     10 N1          1.1399    2.1636    0.0028 N.am      1 <0>        -0.6704
     11 C9          1.0694    3.5579   -0.0816 C.ar      1 <0>         0.1491
     12 C10        -0.1667    4.1937   -0.0643 C.ar      1 <0>        -0.1104
     13 C11        -0.2407    5.5715   -0.1421 C.ar      1 <0>        -0.0982
     14 C12         0.9118    6.3241   -0.2481 C.ar      1 <0>        -0.1155
     15 C13         2.1563    5.6948   -0.2721 C.ar      1 <0>        -0.0205
     16 C14         2.2318    4.3058   -0.1883 C.ar      1 <0>        -0.1111
     17 C15         3.3945    6.5007   -0.3858 C.2       1 <0>        -0.1612
     18 C16         3.5148    7.4563   -1.3587 C.2       1 <0>        -0.0014
     19 C17         4.7591    8.2240   -1.4259 C.ar      1 <0>        -0.1515
     20 C18         4.9334    9.2129   -2.4024 C.ar      1 <0>        -0.0556
     21 C19         6.1007    9.9204   -2.4515 C.ar      1 <0>        -0.1398
     22 C20         7.1160    9.6665   -1.5403 C.ar      1 <0>        -0.0635
     23 C21         6.9649    8.6971   -0.5714 C.ar      1 <0>        -0.1330
     24 C22         5.7858    7.9639   -0.5015 C.ar      1 <0>         0.1414
     25 O2          5.6330    7.0134    0.4449 O.3       1 <0>        -0.2661
     26 C23         4.5066    6.2912    0.5454 C.2       1 <0>         0.5128
     27 O3          4.4094    5.4476    1.4174 O.2       1 <0>        -0.4428
     28 H1         -0.4108   -4.6285   -0.0866 H         1 <0>         0.0770
     29 H2          1.2523   -4.6303    0.5478 H         1 <0>         0.0710
     30 H3         -0.1285   -4.6357    1.6709 H         1 <0>         0.0714
     31 H4         -1.4185   -2.6225    2.0648 H         1 <0>         0.1323
     32 H5         -1.4283   -0.1630    2.0824 H         1 <0>         0.1383
     33 H6          1.8939   -0.1500   -0.6302 H         1 <0>         0.1257
     34 H7          1.8919   -2.6096   -0.6266 H         1 <0>         0.1310
     35 H8          1.8405    1.6842   -0.4664 H         1 <0>         0.4107
     36 H9         -1.0716    3.6095    0.0143 H         1 <0>         0.1373
     37 H10        -1.2033    6.0607   -0.1245 H         1 <0>         0.1324
     38 H11         0.8498    7.4004   -0.3129 H         1 <0>         0.1272
     39 H12         3.1929    3.8134   -0.2067 H         1 <0>         0.1277
     40 H13         2.7124    7.6391   -2.0581 H         1 <0>         0.1558
     41 H14         4.1470    9.4154   -3.1145 H         1 <0>         0.1400
     42 H15         6.2345   10.6828   -3.2048 H         1 <0>         0.1366
     43 H16         8.0338   10.2335   -1.5907 H         1 <0>         0.1413
     44 H17         7.7619    8.5073    0.1323 H         1 <0>         0.1447
@<TRIPOS>BOND
     1    1    2 1
     2    1   28 1
     3    1   29 1
     4    1   30 1
     5    2    7 ar
     6    2    3 ar
     7    3    4 ar
     8    3   31 1
     9    4    5 ar
    10    4   32 1
    11    5    6 ar
    12    5    8 1
    13    6    7 ar
    14    6   33 1
    15    7   34 1
    16    8    9 2
    17    8   10 am
    18   10   11 1
    19   10   35 1
    20   11   16 ar
    21   11   12 ar
    22   12   13 ar
    23   12   36 1
    24   13   14 ar
    25   13   37 1
    26   14   15 ar
    27   14   38 1
    28   15   16 ar
    29   15   17 1
    30   16   39 1
    31   17   26 1
    32   17   18 2
    33   18   19 1
    34   18   40 1
    35   19   24 ar
    36   19   20 ar
    37   20   21 ar
    38   20   41 1
    39   21   22 ar
    40   21   42 1
    41   22   23 ar
    42   22   43 1
    43   23   24 ar
    44   23   44 1
    45   24   25 1
    46   25   26 1
    47   26   27 2
@<TRIPOS>MOLECULE
ZINC00407350
   36    37     0     0     0
SMALL
USER_CHARGES
methyl (4S)-4-(4-bromophenyl)-5-cyano-2,6-dimethyl-1,4-dihydropyridine-3-carboxylate
@<TRIPOS>ATOM
      1 C1          3.5715    2.2302    0.7130 C.3       1 <0>        -0.1365
      2 C2          2.3572    1.4175    0.3442 C.2       1 <0>         0.2107
      3 C3          2.3952    0.0808    0.4561 C.2       1 <0>        -0.1495
      4 C4          1.2121   -0.7703    0.0917 C.3       1 <0>         0.0891
      5 H1          1.0688   -1.5269    0.8772 H         1 <0>         0.0919
      6 C5         -0.0343    0.0629   -0.0040 C.2       1 <0>        -0.2456
      7 C6          0.0235    1.4032   -0.0988 C.2       1 <0>         0.2035
      8 N1          1.2263    2.0533   -0.1028 N.pl3     1 <0>        -0.6450
      9 C7         -1.2526    2.1975   -0.2081 C.3       1 <0>        -0.1387
     10 C8         -1.2952   -0.5758    0.0053 C.2       1 <0>         0.5355
     11 O1         -1.7868   -0.9365    1.0584 O.2       1 <0>        -0.4980
     12 O2         -1.9539   -0.7856   -1.1538 O.3       1 <0>        -0.3455
     13 C9         -3.2233   -1.4365   -1.0700 C.3       1 <0>         0.0268
     14 C10         1.4687   -1.4336   -1.2369 C.ar      1 <0>        -0.0635
     15 C11         1.6579   -0.6629   -2.3689 C.ar      1 <0>        -0.0879
     16 C12         1.8980   -1.2707   -3.5868 C.ar      1 <0>        -0.0896
     17 C13         1.9385   -2.6506   -3.6748 C.ar      1 <0>        -0.0894
     18 C14         1.7438   -3.4214   -2.5429 C.ar      1 <0>        -0.0878
     19 C15         1.5090   -2.8126   -1.3244 C.ar      1 <0>        -0.1064
     20 Br1         2.2591   -3.4829   -5.3423 Br        1 <0>        -0.0521
     21 C16         3.5897   -0.5482    0.9339 C.1       1 <0>         0.2662
     22 N2          4.5372   -1.0471    1.3129 N.1       1 <0>        -0.4265
     23 H2          4.3752    1.5576    1.0471 H         1 <0>         0.0867
     24 H3          3.3142    2.9259    1.5253 H         1 <0>         0.0916
     25 H4          3.9114    2.8003   -0.1642 H         1 <0>         0.0909
     26 H5          1.2853    3.0899   -0.4662 H         1 <0>         0.4496
     27 H6         -1.0129    3.2689   -0.2760 H         1 <0>         0.0837
     28 H7         -1.8744    2.0165    0.6811 H         1 <0>         0.0912
     29 H8         -1.8018    1.8868   -1.1091 H         1 <0>         0.0967
     30 H9         -3.6477   -1.5437   -2.0792 H         1 <0>         0.1038
     31 H10        -3.9032   -0.8355   -0.4483 H         1 <0>         0.0615
     32 H11        -3.0961   -2.4313   -0.6181 H         1 <0>         0.0618
     33 H12         1.6222    0.4143   -2.3008 H         1 <0>         0.1260
     34 H13         2.0496   -0.6685   -4.4704 H         1 <0>         0.1321
     35 H14         1.7749   -4.4988   -2.6112 H         1 <0>         0.1329
     36 H15         1.3567   -3.4144   -0.4406 H         1 <0>         0.1296
@<TRIPOS>BOND
     1    1    2 1
     2    1   23 1
     3    1   24 1
     4    1   25 1
     5    2    8 1
     6    2    3 2
     7    3    4 1
     8    3   21 1
     9    4    5 1
    10    4    6 1
    11    4   14 1
    12    6    7 2
    13    6   10 1
    14    7    8 1
    15    7    9 1
    16    8   26 1
    17    9   27 1
    18    9   28 1
    19    9   29 1
    20   10   11 2
    21   10   12 1
    22   12   13 1
    23   13   30 1
    24   13   31 1
    25   13   32 1
    26   14   19 ar
    27   14   15 ar
    28   15   16 ar
    29   15   33 1
    30   16   17 ar
    31   16   34 1
    32   17   18 ar
    33   17   20 1
    34   18   19 ar
    35   18   35 1
    36   19   36 1
    37   21   22 3
@<TRIPOS>MOLECULE
ZINC39312546
   42    45     0     0     0
SMALL
USER_CHARGES

@<TRIPOS>ATOM
      1 C1         -0.0169    1.3986    0.0097 C.ar      1 <0>        -0.0756
      2 C2          1.1685    2.0991    0.0022 C.ar      1 <0>        -0.1120
      3 C3          2.3785    1.4222   -0.0135 C.ar      1 <0>        -0.0149
      4 C4          2.4066    0.0359   -0.0212 C.ar      1 <0>        -0.1068
      5 C5          1.2308   -0.6807   -0.0138 C.ar      1 <0>        -0.0439
      6 C6          0.0021   -0.0041    0.0020 C.ar      1 <0>        -0.0730
      7 C7         -1.2529   -0.7573    0.0100 C.2       1 <0>         0.0876
      8 C8         -1.6187   -1.5474   -1.0492 C.2       1 <0>        -0.2891
      9 C9         -2.8995   -2.2658   -0.9464 C.2       1 <0>         0.2911
     10 N1         -3.3121   -3.0390   -1.9223 N.2       1 <0>        -0.5476
     11 C10        -2.5912   -3.1983   -3.0300 C.2       1 <0>         0.6518
     12 N2         -1.4291   -2.6018   -3.2253 N.2       1 <0>        -0.6641
     13 C11        -0.8799   -1.7859   -2.3246 C.2       1 <0>         0.5659
     14 O1          0.1963   -1.2501   -2.5364 O.2       1 <0>        -0.4685
     15 N3         -3.0793   -4.0232   -4.0174 N.pl3     1 <0>        -0.6597
     16 C12        -2.3134   -4.2225   -5.2503 C.3       1 <0>         0.1543
     17 C13        -2.6325   -3.0971   -6.2364 C.3       1 <0>        -0.1270
     18 C14        -1.8327   -3.3053   -7.5240 C.3       1 <0>        -0.1163
     19 C15        -2.2097   -4.6511   -8.1466 C.3       1 <0>        -0.1232
     20 C16        -1.8906   -5.7765   -7.1604 C.3       1 <0>        -0.1148
     21 C17        -2.6904   -5.5683   -5.8729 C.3       1 <0>        -0.1284
     22 S1         -3.5553   -1.8110    0.6387 S.3       1 <0>         0.0166
     23 C18        -2.1972   -0.7018    1.1885 C.3       1 <0>        -0.0950
     24 Cl1         3.8669    2.3155   -0.0240 Cl        1 <0>        -0.0613
     25 H1         -0.9585    1.9274    0.0260 H         1 <0>         0.1366
     26 H2          1.1557    3.1790    0.0081 H         1 <0>         0.1407
     27 H3          3.3535   -0.4834   -0.0334 H         1 <0>         0.1401
     28 H4          1.2545   -1.7604   -0.0206 H         1 <0>         0.1315
     29 H5         -3.9304   -4.4727   -3.8971 H         1 <0>         0.4160
     30 H6         -1.2478   -4.2139   -5.0214 H         1 <0>         0.1025
     31 H7         -3.6982   -3.1058   -6.4653 H         1 <0>         0.0622
     32 H8         -2.3639   -2.1384   -5.7929 H         1 <0>         0.0706
     33 H9         -2.0600   -2.5035   -8.2266 H         1 <0>         0.0659
     34 H10        -0.7670   -3.2966   -7.2952 H         1 <0>         0.0673
     35 H11        -3.2754   -4.6598   -8.3754 H         1 <0>         0.0627
     36 H12        -1.6399   -4.7994   -9.0639 H         1 <0>         0.0654
     37 H13        -2.1592   -6.7353   -7.6040 H         1 <0>         0.0692
     38 H14        -0.8250   -5.7678   -6.9316 H         1 <0>         0.0672
     39 H15        -2.4631   -6.3701   -5.1703 H         1 <0>         0.0704
     40 H16        -3.7561   -5.5770   -6.1017 H         1 <0>         0.0697
     41 H17        -1.7190   -1.0865    2.0893 H         1 <0>         0.1588
     42 H18        -2.5639    0.3124    1.3466 H         1 <0>         0.1572
@<TRIPOS>BOND
     1    1    6 ar
     2    1    2 ar
     3    1   25 1
     4    2    3 ar
     5    2   26 1
     6    3    4 ar
     7    3   24 1
     8    4    5 ar
     9    4   27 1
    10    5    6 ar
    11    5   28 1
    12    6    7 1
    13    7   23 1
    14    7    8 2
    15    8   13 1
    16    8    9 1
    17    9   10 2
    18    9   22 1
    19   10   11 1
    20   11   12 2
    21   11   15 1
    22   12   13 1
    23   13   14 2
    24   15   16 1
    25   15   29 1
    26   16   21 1
    27   16   17 1
    28   16   30 1
    29   17   18 1
    30   17   31 1
    31   17   32 1
    32   18   19 1
    33   18   33 1
    34   18   34 1
    35   19   20 1
    36   19   35 1
    37   19   36 1
    38   20   21 1
    39   20   37 1
    40   20   38 1
    41   21   39 1
    42   21   40 1
    43   22   23 1
    44   23   41 1
    45   23   42 1
@<TRIPOS>MOLECULE
ZINC59392614
   45    46     0     0     0
SMALL
USER_CHARGES

@<TRIPOS>ATOM
      1 C1         -0.3709    1.1897    1.2719 C.3       1 <0>        -0.1552
      2 C2         -0.3633   -0.3230    1.0421 C.3       1 <0>        -0.1223
      3 C3         -1.7886   -0.8034    0.7615 C.3       1 <0>        -0.0518
      4 C4         -1.7811   -2.2933    0.5352 C.2       1 <0>         0.1086
      5 N1         -0.7502   -3.0334    0.5777 N.2       1 <0>        -0.2455
      6 N2         -0.9976   -4.3829    0.3343 N.am      1 <0>        -0.4789
      7 C5         -2.4384   -4.5619    0.0896 C.3       1 <0>         0.3274
      8 C6         -3.0010   -3.1328    0.2297 C.3       1 <0>        -0.1683
      9 C7         -2.6831   -5.1087   -1.3182 C.3       1 <0>        -0.0500
     10 C8         -2.1180   -6.5268   -1.4199 C.3       1 <0>        -0.1433
     11 C9         -4.1867   -5.1374   -1.6000 C.3       1 <0>        -0.1406
     12 C10        -1.9894   -4.2085   -2.3426 C.3       1 <0>        -0.1443
     13 O1         -3.0138   -5.4236    1.0738 O.3       1 <0>        -0.5350
     14 C11        -0.0715   -5.3620    0.3241 C.2       1 <0>         0.5900
     15 O2         -0.4145   -6.5220    0.2015 O.2       1 <0>        -0.4833
     16 C12         1.3605   -5.0257    0.4619 C.ar      1 <0>        -0.1389
     17 C13         1.7693   -3.6906    0.4713 C.ar      1 <0>        -0.0676
     18 C14         3.1072   -3.3830    0.6006 C.ar      1 <0>        -0.1281
     19 C15         4.0450   -4.3953    0.7207 C.ar      1 <0>        -0.0067
     20 C16         3.6457   -5.7216    0.7120 C.ar      1 <0>        -0.1270
     21 C17         2.3101   -6.0416    0.5891 C.ar      1 <0>        -0.0468
     22 Cl1         5.7277   -4.0001    0.8820 Cl        1 <0>        -0.0632
     23 H1          0.6445    1.5319    1.4717 H         1 <0>         0.0585
     24 H2         -0.7547    1.6903    0.3829 H         1 <0>         0.0561
     25 H3         -1.0079    1.4244    2.1246 H         1 <0>         0.0559
     26 H4          0.2737   -0.5577    0.1893 H         1 <0>         0.0687
     27 H5          0.0205   -0.8236    1.9310 H         1 <0>         0.0698
     28 H6         -2.4256   -0.5686    1.6143 H         1 <0>         0.0958
     29 H7         -2.1724   -0.3028   -0.1274 H         1 <0>         0.0962
     30 H8         -3.7173   -3.0798    1.0496 H         1 <0>         0.1124
     31 H9         -3.4623   -2.8121   -0.7043 H         1 <0>         0.1185
     32 H10        -2.4520   -7.1133   -0.5640 H         1 <0>         0.0725
     33 H11        -2.4705   -6.9933   -2.3398 H         1 <0>         0.0439
     34 H12        -1.0289   -6.4842   -1.4284 H         1 <0>         0.0780
     35 H13        -4.5893   -4.1270   -1.5275 H         1 <0>         0.0555
     36 H14        -4.3610   -5.5269   -2.6030 H         1 <0>         0.0633
     37 H15        -4.6809   -5.7786   -0.8702 H         1 <0>         0.0673
     38 H16        -0.9182   -4.1881   -2.1419 H         1 <0>         0.0554
     39 H17        -2.1637   -4.5981   -3.3456 H         1 <0>         0.0687
     40 H18        -2.3919   -3.1982   -2.2702 H         1 <0>         0.0565
     41 H19        -2.9182   -5.1033    1.9812 H         1 <0>         0.3783
     42 H20         1.0391   -2.9004    0.3770 H         1 <0>         0.1770
     43 H21         3.4246   -2.3507    0.6080 H         1 <0>         0.1383
     44 H22         4.3815   -6.5066    0.8060 H         1 <0>         0.1406
     45 H23         1.9995   -7.0760    0.5866 H         1 <0>         0.1435
@<TRIPOS>BOND
     1    1    2 1
     2    1   23 1
     3    1   24 1
     4    1   25 1
     5    2    3 1
     6    2   26 1
     7    2   27 1
     8    3    4 1
     9    3   28 1
    10    3   29 1
    11    4    8 1
    12    4    5 2
    13    5    6 1
    14    6    7 1
    15    6   14 am
    16    7    8 1
    17    7    9 1
    18    7   13 1
    19    8   30 1
    20    8   31 1
    21    9   10 1
    22    9   11 1
    23    9   12 1
    24   10   32 1
    25   10   33 1
    26   10   34 1
    27   11   35 1
    28   11   36 1
    29   11   37 1
    30   12   38 1
    31   12   39 1
    32   12   40 1
    33   13   41 1
    34   14   15 2
    35   14   16 1
    36   16   21 ar
    37   16   17 ar
    38   17   18 ar
    39   17   42 1
    40   18   19 ar
    41   18   43 1
    42   19   20 ar
    43   19   22 1
    44   20   21 ar
    45   20   44 1
    46   21   45 1
@<TRIPOS>MOLECULE
ZINC11744835
   67    70     0     0     0
SMALL
USER_CHARGES
N-[3-methyl-4-(2-oxopyrrolidin-1-yl)-phenyl]-1-(2,4,6-trimethylphenyl)sulfonyl-piperidine-4-carboxamide
@<TRIPOS>ATOM
      1 C1          2.8895    1.2484    0.5169 C.3       1 <0>        -0.1257
      2 C2          1.4950    1.7317    0.2122 C.ar      1 <0>        -0.0178
      3 C3          0.4711    0.8203    0.0344 C.ar      1 <0>        -0.1556
      4 C4         -0.8070    1.2635   -0.2503 C.ar      1 <0>         0.0307
      5 C5         -1.0631    2.6184   -0.3477 C.ar      1 <0>        -0.6938
      6 C6         -0.0392    3.5299   -0.1691 C.ar      1 <0>         0.0329
      7 C7          1.2398    3.0865    0.1109 C.ar      1 <0>        -0.1557
      8 C8         -0.3174    5.0068   -0.2800 C.3       1 <0>        -0.1905
      9 S1         -2.6933    3.1835   -0.7051 S.o2      1 <0>         2.6898
     10 O1         -3.5688    2.0991   -0.4280 O.2       1 <0>        -0.9482
     11 O2         -2.8298    4.4519   -0.0792 O.2       1 <0>        -0.9514
     12 N1         -2.7722    3.4503   -2.3375 N.pl3     1 <0>        -0.9981
     13 C9         -2.4386    4.7669   -2.8979 C.3       1 <0>         0.1165
     14 C10        -3.5985    5.2452   -3.7692 C.3       1 <0>        -0.1264
     15 C11        -3.9193    4.1782   -4.8183 C.3       1 <0>        -0.1035
     16 C12        -4.3400    2.8833   -4.1194 C.3       1 <0>        -0.1129
     17 C13        -3.1830    2.3766   -3.2525 C.3       1 <0>         0.1157
     18 C14        -5.0430    4.6614   -5.6986 C.2       1 <0>         0.5183
     19 O3         -6.0782    4.0323   -5.7608 O.2       1 <0>        -0.5114
     20 N2         -4.8978    5.7927   -6.4167 N.am      1 <0>        -0.6742
     21 C15        -5.9787    6.3018   -7.1477 C.ar      1 <0>         0.1582
     22 C16        -7.2740    6.1468   -6.6710 C.ar      1 <0>        -0.1177
     23 C17        -8.3392    6.6481   -7.3915 C.ar      1 <0>        -0.0840
     24 C18        -8.1157    7.3084   -8.5929 C.ar      1 <0>         0.1234
     25 C19        -6.8207    7.4637   -9.0692 C.ar      1 <0>        -0.0548
     26 C20        -5.7549    6.9665   -8.3460 C.ar      1 <0>        -0.1403
     27 C21        -6.5783    8.1797  -10.3729 C.3       1 <0>        -0.1128
     28 N3         -9.1967    7.8171   -9.3241 N.am      1 <0>        -0.5776
     29 C22        -9.9244    7.0684  -10.3555 C.3       1 <0>         0.1022
     30 C23       -11.2546    7.8318  -10.5549 C.3       1 <0>        -0.1315
     31 C24       -10.8636    9.2621  -10.1163 C.3       1 <0>        -0.1541
     32 C25        -9.6971    9.0558   -9.1754 C.2       1 <0>         0.5192
     33 O4         -9.2752    9.8870   -8.3993 O.2       1 <0>        -0.5198
     34 C26        -1.9221    0.2696   -0.4502 C.3       1 <0>        -0.1510
     35 H1          3.4329    1.0954   -0.4155 H         1 <0>         0.0796
     36 H2          3.4080    1.9925    1.1216 H         1 <0>         0.0730
     37 H3          2.8364    0.3078    1.0651 H         1 <0>         0.0732
     38 H4          0.6705   -0.2382    0.1136 H         1 <0>         0.1313
     39 H5          2.0398    3.7986    0.2501 H         1 <0>         0.1306
     40 H6         -0.3246    5.2973   -1.3305 H         1 <0>         0.0793
     41 H7         -1.2875    5.2283    0.1649 H         1 <0>         0.1345
     42 H8          0.4588    5.5632    0.2455 H         1 <0>         0.0787
     43 H9         -2.2744    5.4777   -2.0880 H         1 <0>         0.1017
     44 H10        -1.5372    4.6876   -3.5056 H         1 <0>         0.0755
     45 H11        -3.3216    6.1741   -4.2679 H         1 <0>         0.0842
     46 H12        -4.4746    5.4149   -3.1433 H         1 <0>         0.0800
     47 H13        -3.0353    3.9912   -5.4279 H         1 <0>         0.1056
     48 H14        -4.5907    2.1311   -4.8673 H         1 <0>         0.0884
     49 H15        -5.2090    3.0753   -3.4901 H         1 <0>         0.0805
     50 H16        -2.3435    2.0985   -3.8898 H         1 <0>         0.0747
     51 H17        -3.5098    1.5108   -2.6766 H         1 <0>         0.1000
     52 H18        -4.0447    6.2542   -6.4273 H         1 <0>         0.4121
     53 H19        -7.4478    5.6338   -5.7367 H         1 <0>         0.1393
     54 H20        -9.3464    6.5273   -7.0210 H         1 <0>         0.1284
     55 H21        -4.7473    7.0912   -8.7144 H         1 <0>         0.1312
     56 H22        -6.4413    9.2442  -10.1828 H         1 <0>         0.0738
     57 H23        -5.6833    7.7772  -10.8475 H         1 <0>         0.0700
     58 H24        -7.4348    8.0355  -11.0314 H         1 <0>         0.0667
     59 H25        -9.3529    7.0520  -11.2835 H         1 <0>         0.0754
     60 H26       -10.1216    6.0518  -10.0151 H         1 <0>         0.0821
     61 H27       -12.0399    7.4287   -9.9155 H         1 <0>         0.0851
     62 H28       -11.5590    7.8142  -11.6014 H         1 <0>         0.0942
     63 H29       -11.6929    9.7418   -9.5965 H         1 <0>         0.1050
     64 H30       -10.5581    9.8553  -10.9783 H         1 <0>         0.1070
     65 H31        -2.4026    0.0653    0.5066 H         1 <0>         0.0916
     66 H32        -2.6550    0.6807   -1.1444 H         1 <0>         0.0968
     67 H33        -1.5152   -0.6559   -0.8574 H         1 <0>         0.0723
@<TRIPOS>BOND
     1    1    2 1
     2    1   35 1
     3    1   36 1
     4    1   37 1
     5    2    7 ar
     6    2    3 ar
     7    3    4 ar
     8    3   38 1
     9    4    5 ar
    10    4   34 1
    11    5    6 ar
    12    5    9 1
    13    6    7 ar
    14    6    8 1
    15    7   39 1
    16    8   40 1
    17    8   41 1
    18    8   42 1
    19    9   10 2
    20    9   11 2
    21    9   12 1
    22   12   17 1
    23   12   13 1
    24   13   14 1
    25   13   43 1
    26   13   44 1
    27   14   15 1
    28   14   45 1
    29   14   46 1
    30   15   16 1
    31   15   18 1
    32   15   47 1
    33   16   17 1
    34   16   48 1
    35   16   49 1
    36   17   50 1
    37   17   51 1
    38   18   19 2
    39   18   20 am
    40   20   21 1
    41   20   52 1
    42   21   26 ar
    43   21   22 ar
    44   22   23 ar
    45   22   53 1
    46   23   24 ar
    47   23   54 1
    48   24   25 ar
    49   24   28 1
    50   25   26 ar
    51   25   27 1
    52   26   55 1
    53   27   56 1
    54   27   57 1
    55   27   58 1
    56   28   32 am
    57   28   29 1
    58   29   30 1
    59   29   59 1
    60   29   60 1
    61   30   31 1
    62   30   61 1
    63   30   62 1
    64   31   32 1
    65   31   63 1
    66   31   64 1
    67   32   33 2
    68   34   65 1
    69   34   66 1
    70   34   67 1
@<TRIPOS>MOLECULE
ZINC20418049
   61    65     0     0     0
SMALL
USER_CHARGES
(7S)-7-(4-chlorophenyl)-1,7-dimethyl-N-(2-morpholinoethyl)-9-oxo-8H-furo[4,5-f]chromene-2-carboxamide
@<TRIPOS>ATOM
      1 C1         -1.9566   -1.1951   -0.6369 C.3       1 <0>        -0.1826
      2 C2         -2.8819   -0.0135   -0.5007 C.2       1 <0>        -0.0666
      3 C3         -2.5407    1.3481   -0.6770 C.ar      1 <0>        -0.0562
      4 C4         -3.7154    2.0840   -0.4520 C.ar      1 <0>         0.0266
      5 C5         -3.6860    3.4724   -0.5568 C.ar      1 <0>        -0.0322
      6 C6         -2.5202    4.1293   -0.8801 C.ar      1 <0>        -0.1232
      7 C7         -1.3417    3.4221   -1.1090 C.ar      1 <0>         0.1814
      8 C8         -1.3486    2.0243   -1.0108 C.ar      1 <0>        -0.2082
      9 C9         -0.0996    1.2865   -1.2402 C.2       1 <0>         0.3983
     10 O1          0.0066    0.1104   -0.9605 O.2       1 <0>        -0.4066
     11 C10         1.0498    2.0681   -1.8508 C.3       1 <0>        -0.1941
     12 C11         1.0504    3.4569   -1.1948 C.3       1 <0>         0.1750
     13 O2         -0.2077    4.0888   -1.4292 O.3       1 <0>        -0.2929
     14 C12         1.2758    3.3104    0.3114 C.3       1 <0>        -0.1823
     15 C13         2.1535    4.2939   -1.7896 C.ar      1 <0>        -0.0786
     16 C14         3.3073    3.6888   -2.2518 C.ar      1 <0>        -0.0944
     17 C15         4.3170    4.4554   -2.8026 C.ar      1 <0>        -0.1075
     18 C16         4.1774    5.8296   -2.8810 C.ar      1 <0>        -0.0278
     19 C17         3.0248    6.4352   -2.4130 C.ar      1 <0>        -0.1093
     20 C18         2.0135    5.6670   -1.8676 C.ar      1 <0>        -0.0778
     21 Cl1         5.4478    6.7938   -3.5667 Cl        1 <0>        -0.0637
     22 O3         -4.6944    1.2037   -0.1586 O.3       1 <0>        -0.1735
     23 C19        -4.2031   -0.0526   -0.1861 C.2       1 <0>        -0.0344
     24 C20        -4.9774   -1.2746    0.0827 C.2       1 <0>         0.6027
     25 O4         -4.4347   -2.3620    0.0316 O.2       1 <0>        -0.5053
     26 N1         -6.2879   -1.1890    0.3855 N.am      1 <0>        -0.7308
     27 C21        -7.0588   -2.4057    0.6531 C.3       1 <0>         0.1234
     28 C22        -8.5086   -2.0318    0.9683 C.3       1 <0>         0.0440
     29 N2         -9.2816   -3.2518    1.2366 N.3       1 <0>        -0.5329
     30 C23        -9.3960   -4.0797    0.0272 C.3       1 <0>         0.0100
     31 C24       -10.1553   -5.3654    0.3653 C.3       1 <0>         0.0610
     32 O5        -11.4325   -5.0286    0.9136 O.3       1 <0>        -0.3844
     33 C25       -11.3584   -4.2230    2.0930 C.3       1 <0>         0.0609
     34 C26       -10.6113   -2.9258    1.7724 C.3       1 <0>         0.0177
     35 H1         -0.9482   -0.8428   -0.8995 H         1 <0>         0.1703
     36 H2         -2.3290   -1.8632   -1.4275 H         1 <0>         0.0662
     37 H3         -1.9172   -1.7418    0.3168 H         1 <0>         0.0709
     38 H4         -4.5881    4.0402   -0.3828 H         1 <0>         0.1507
     39 H5         -2.5190    5.2066   -0.9569 H         1 <0>         0.1569
     40 H6          1.9963    1.5444   -1.6510 H         1 <0>         0.1213
     41 H7          0.8996    2.1524   -2.9372 H         1 <0>         0.1216
     42 H8          1.2761    4.3053    0.7806 H         1 <0>         0.0817
     43 H9          2.2438    2.8199    0.4913 H         1 <0>         0.0862
     44 H10         0.4695    2.7007    0.7452 H         1 <0>         0.0690
     45 H11         3.4180    2.6165   -2.1865 H         1 <0>         0.1380
     46 H12         5.2165    3.9822   -3.1677 H         1 <0>         0.1393
     47 H13         2.9154    7.5079   -2.4736 H         1 <0>         0.1382
     48 H14         1.1138    6.1396   -1.5020 H         1 <0>         0.1406
     49 H15        -6.7787   -0.2056    0.4317 H         1 <0>         0.4280
     50 H16        -7.0325   -3.0585   -0.2319 H         1 <0>         0.0714
     51 H17        -6.6216   -2.9353    1.5124 H         1 <0>         0.0817
     52 H18        -8.5348   -1.3790    1.8533 H         1 <0>         0.0862
     53 H19        -8.9458   -1.5022    0.1090 H         1 <0>         0.0448
     54 H20        -9.9418   -3.5224   -0.7483 H         1 <0>         0.0461
     55 H21        -8.3906   -4.3315   -0.3413 H         1 <0>         0.0916
     56 H22       -10.2922   -5.9615   -0.5490 H         1 <0>         0.1015
     57 H23        -9.5807   -5.9481    1.1003 H         1 <0>         0.0628
     58 H24       -12.3751   -3.9866    2.4400 H         1 <0>         0.1015
     59 H25       -10.8211   -4.7730    2.8796 H         1 <0>         0.0623
     60 H26       -10.5007   -2.3279    2.6891 H         1 <0>         0.0896
     61 H27       -11.1767   -2.3499    1.0250 H         1 <0>         0.0457
@<TRIPOS>BOND
     1    1    2 1
     2    1   35 1
     3    1   36 1
     4    1   37 1
     5    2   23 2
     6    2    3 1
     7    3    8 ar
     8    3    4 ar
     9    4    5 ar
    10    4   22 1
    11    5    6 ar
    12    5   38 1
    13    6    7 ar
    14    6   39 1
    15    7   13 1
    16    7    8 ar
    17    8    9 1
    18    9   10 2
    19    9   11 1
    20   11   12 1
    21   11   40 1
    22   11   41 1
    23   12   13 1
    24   12   14 1
    25   12   15 1
    26   14   42 1
    27   14   43 1
    28   14   44 1
    29   15   20 ar
    30   15   16 ar
    31   16   17 ar
    32   16   45 1
    33   17   18 ar
    34   17   46 1
    35   18   19 ar
    36   18   21 1
    37   19   20 ar
    38   19   47 1
    39   20   48 1
    40   22   23 1
    41   23   24 1
    42   24   25 2
    43   24   26 am
    44   26   27 1
    45   26   49 1
    46   27   28 1
    47   27   50 1
    48   27   51 1
    49   28   29 1
    50   28   52 1
    51   28   53 1
    52   29   34 1
    53   29   30 1
    54   30   31 1
    55   30   54 1
    56   30   55 1
    57   31   32 1
    58   31   56 1
    59   31   57 1
    60   32   33 1
    61   33   34 1
    62   33   58 1
    63   33   59 1
    64   34   60 1
    65   34   61 1
@<TRIPOS>MOLECULE
ZINC33289862
   54    57     0     0     0
SMALL
USER_CHARGES
N-[3-[5-[(3S)-1-(3-bromobenzoyl)-3-piperidyl]-1,2,4-oxadiazol-3-yl]phenyl]propanamide
@<TRIPOS>ATOM
      1 C1         -3.6727   -1.2926    1.7779 C.3       1 <0>        -0.1418
      2 C2         -3.8237   -0.1812    0.7373 C.3       1 <0>        -0.1421
      3 C3         -2.4921    0.4912    0.5235 C.2       1 <0>         0.5102
      4 O1         -1.5181    0.1181    1.1426 O.2       1 <0>        -0.5196
      5 N1         -2.3834    1.5070   -0.3555 N.am      1 <0>        -0.6892
      6 C4         -1.1716    2.1952   -0.4833 C.ar      1 <0>         0.1461
      7 C5         -1.1716    3.5615   -0.7371 C.ar      1 <0>        -0.1252
      8 C6          0.0230    4.2432   -0.8695 C.ar      1 <0>        -0.1026
      9 C7          1.2232    3.5719   -0.7446 C.ar      1 <0>        -0.0907
     10 C8          1.2326    2.2031   -0.4844 C.ar      1 <0>        -0.0083
     11 C9          0.0294    1.5152   -0.3508 C.ar      1 <0>        -0.0887
     12 C10         2.5220    1.4800   -0.3504 C.2       1 <0>         0.2147
     13 N2          3.7582    2.0164   -0.4609 N.2       1 <0>        -0.4651
     14 C11         4.5908    1.0234   -0.2700 C.2       1 <0>         0.1862
     15 O2          3.8548   -0.0725   -0.0602 O.3       1 <0>         0.0884
     16 N3          2.6748    0.2040   -0.1091 N.2       1 <0>        -0.3655
     17 C12         6.0957    1.1008   -0.2891 C.3       1 <0>        -0.0063
     18 H1          6.3898    2.1421   -0.4869 H         1 <0>         0.1236
     19 C13         6.6476    0.6510    1.0656 C.3       1 <0>        -0.1202
     20 C14         8.1741    0.7596    1.0580 C.3       1 <0>        -0.1336
     21 C15         8.7428   -0.1609   -0.0263 C.3       1 <0>         0.0833
     22 N4          8.1079    0.1709   -1.3091 N.am      1 <0>        -0.6027
     23 C16         6.6409    0.1841   -1.3887 C.3       1 <0>         0.1156
     24 C17         8.8570    0.4581   -2.3921 C.2       1 <0>         0.5657
     25 O3          8.3225    0.6562   -3.4657 O.2       1 <0>        -0.5214
     26 C18        10.3289    0.5322   -2.2743 C.ar      1 <0>        -0.1215
     27 C19        11.0271   -0.4567   -1.5791 C.ar      1 <0>        -0.0799
     28 C20        12.4009   -0.3852   -1.4775 C.ar      1 <0>        -0.1158
     29 C21        13.0865    0.6699   -2.0530 C.ar      1 <0>        -0.0681
     30 C22        12.4002    1.6570   -2.7390 C.ar      1 <0>        -0.0953
     31 C23        11.0256    1.5939   -2.8528 C.ar      1 <0>        -0.0394
     32 Br1        13.3469    3.0949   -3.5213 Br        1 <0>        -0.0367
     33 H2         -4.6447   -1.7833    1.9339 H         1 <0>         0.0651
     34 H3         -3.3233   -0.8609    2.7274 H         1 <0>         0.0629
     35 H4         -2.9415   -2.0326    1.4205 H         1 <0>         0.0632
     36 H5         -4.1731   -0.6129   -0.2122 H         1 <0>         0.0977
     37 H6         -4.5549    0.5588    1.0946 H         1 <0>         0.0980
     38 H7         -3.2472    1.7952   -0.9725 H         1 <0>         0.4374
     39 H8         -2.1077    4.0909   -0.8360 H         1 <0>         0.1322
     40 H9          0.0179    5.3041   -1.0716 H         1 <0>         0.1364
     41 H10         2.1550    4.1081   -0.8484 H         1 <0>         0.1367
     42 H11         0.0317    0.4542   -0.1491 H         1 <0>         0.1476
     43 H12         6.2389    1.2933    1.8596 H         1 <0>         0.0797
     44 H13         6.3558   -0.3931    1.2521 H         1 <0>         0.0816
     45 H14         8.4667    1.7991    0.8487 H         1 <0>         0.0754
     46 H15         8.5680    0.4585    2.0399 H         1 <0>         0.0901
     47 H16         9.8304   -0.0132   -0.0992 H         1 <0>         0.1049
     48 H17         8.5317   -1.2085    0.2343 H         1 <0>         0.0812
     49 H18         6.2504   -0.8341   -1.2443 H         1 <0>         0.0855
     50 H19         6.3241    0.5623   -2.3719 H         1 <0>         0.1056
     51 H20        10.4931   -1.2786   -1.1254 H         1 <0>         0.1410
     52 H21        12.9423   -1.1522   -0.9436 H         1 <0>         0.1420
     53 H22        14.1617    0.7236   -1.9664 H         1 <0>         0.1398
     54 H23        10.4908    2.3643   -3.3884 H         1 <0>         0.1418
@<TRIPOS>BOND
     1    1    2 1
     2    1   33 1
     3    1   34 1
     4    1   35 1
     5    2    3 1
     6    2   36 1
     7    2   37 1
     8    3    4 2
     9    3    5 am
    10    5    6 1
    11    5   38 1
    12    6   11 ar
    13    6    7 ar
    14    7    8 ar
    15    7   39 1
    16    8    9 ar
    17    8   40 1
    18    9   10 ar
    19    9   41 1
    20   10   11 ar
    21   10   12 1
    22   11   42 1
    23   12   16 2
    24   12   13 1
    25   13   14 2
    26   14   15 1
    27   14   17 1
    28   15   16 1
    29   17   18 1
    30   17   23 1
    31   17   19 1
    32   19   20 1
    33   19   43 1
    34   19   44 1
    35   20   21 1
    36   20   45 1
    37   20   46 1
    38   21   22 1
    39   21   47 1
    40   21   48 1
    41   22   23 1
    42   22   24 am
    43   23   49 1
    44   23   50 1
    45   24   25 2
    46   24   26 1
    47   26   31 ar
    48   26   27 ar
    49   27   28 ar
    50   27   51 1
    51   28   29 ar
    52   28   52 1
    53   29   30 ar
    54   29   53 1
    55   30   31 ar
    56   30   32 1
    57   31   54 1
@<TRIPOS>MOLECULE
ZINC38699852
   58    61     0     0     0
SMALL
USER_CHARGES

@<TRIPOS>ATOM
      1 C1         -1.1413   -0.0757   -4.6486 C.3       1 <0>         0.0793
      2 N1         -0.9327   -1.4242   -4.1153 N.pl3     1 <0>        -1.0039
      3 C2         -1.3160   -1.7336   -2.7355 C.3       1 <0>         0.0902
      4 S1         -0.2637   -2.5987   -5.0720 S.o2      1 <0>         2.6911
      5 O1         -0.6878   -3.8462   -4.5400 O.2       1 <0>        -0.9475
      6 O2         -0.5163   -2.2189   -6.4178 O.2       1 <0>        -0.9482
      7 C3          1.4822   -2.5224   -4.8465 C.ar      1 <0>        -0.6558
      8 C4          2.2465   -1.7042   -5.6594 C.ar      1 <0>        -0.0252
      9 C5          3.6138   -1.6398   -5.4882 C.ar      1 <0>        -0.0772
     10 C6          4.2260   -2.4022   -4.4918 C.ar      1 <0>        -0.0798
     11 C7          3.4489   -3.2252   -3.6749 C.ar      1 <0>        -0.1068
     12 C8          2.0820   -3.2766   -3.8536 C.ar      1 <0>        -0.0263
     13 C9          5.6906   -2.3385   -4.3030 C.2       1 <0>         0.5558
     14 O3          6.3648   -1.6212   -5.0162 O.2       1 <0>        -0.5056
     15 N2          6.2786   -3.0758   -3.3401 N.am      1 <0>        -0.6622
     16 C10         7.6722   -3.0914   -3.2243 C.ar      1 <0>         0.1551
     17 C11         8.4073   -1.9433   -3.4938 C.ar      1 <0>        -0.1339
     18 C12         9.7824   -1.9602   -3.3810 C.ar      1 <0>        -0.0820
     19 C13        10.4407   -3.1182   -2.9988 C.ar      1 <0>        -0.1237
     20 C14         9.7102   -4.2649   -2.7261 C.ar      1 <0>         0.1703
     21 C15         8.3252   -4.2511   -2.8346 C.ar      1 <0>        -0.1791
     22 N3         10.3503   -5.4462   -2.3289 N.am      1 <0>        -0.5428
     23 C16        11.8065   -5.5541   -2.4914 C.3       1 <0>         0.0731
     24 C17        12.4312   -4.2411   -2.0016 C.3       1 <0>        -0.1368
     25 C18        11.9430   -3.0991   -2.8924 C.3       1 <0>        -0.0783
     26 C19         9.6420   -6.4666   -1.8058 C.2       1 <0>         0.5629
     27 O4          8.4332   -6.3810   -1.7098 O.2       1 <0>        -0.5125
     28 C20        10.3350   -7.6897   -1.3490 C.ar      1 <0>        -0.1357
     29 C21        11.5131   -8.1026   -1.9736 C.ar      1 <0>        -0.1053
     30 C22        12.1549   -9.2451   -1.5423 C.ar      1 <0>        -0.1253
     31 C23        11.6332   -9.9812   -0.4933 C.ar      1 <0>        -0.0909
     32 C24        10.4656   -9.5778    0.1298 C.ar      1 <0>        -0.1239
     33 C25         9.8172   -8.4338   -0.2875 C.ar      1 <0>        -0.0591
     34 H1         -0.2557    0.5308   -4.4594 H         1 <0>         0.0577
     35 H2         -1.3197   -0.1333   -5.7223 H         1 <0>         0.0858
     36 H3         -2.0038    0.3785   -4.1608 H         1 <0>         0.0812
     37 H4         -2.3484   -2.0825   -2.7148 H         1 <0>         0.0645
     38 H5         -0.6616   -2.5116   -2.3424 H         1 <0>         0.0723
     39 H6         -1.2231   -0.8369   -2.1228 H         1 <0>         0.0765
     40 H7          1.7716   -1.1149   -6.4298 H         1 <0>         0.1503
     41 H8          4.2094   -1.0013   -6.1238 H         1 <0>         0.1499
     42 H9          3.9164   -3.8178   -2.9025 H         1 <0>         0.1382
     43 H10         1.4791   -3.9099   -3.2196 H         1 <0>         0.1490
     44 H11         5.7352   -3.5957   -2.7275 H         1 <0>         0.4125
     45 H12         7.9017   -1.0368   -3.7922 H         1 <0>         0.1390
     46 H13        10.3492   -1.0655   -3.5922 H         1 <0>         0.1308
     47 H14         7.7577   -5.1446   -2.6202 H         1 <0>         0.1799
     48 H15        12.1837   -6.3865   -1.8973 H         1 <0>         0.1189
     49 H16        12.0502   -5.7094   -3.5424 H         1 <0>         0.0838
     50 H17        12.1291   -4.0550   -0.9710 H         1 <0>         0.0743
     51 H18        13.5176   -4.3099   -2.0588 H         1 <0>         0.0891
     52 H19        12.3755   -3.2085   -3.8869 H         1 <0>         0.0793
     53 H20        12.2612   -2.1482   -2.4649 H         1 <0>         0.0826
     54 H21        11.9211   -7.5291   -2.7927 H         1 <0>         0.1443
     55 H22        13.0663   -9.5659   -2.0249 H         1 <0>         0.1325
     56 H23        12.1395  -10.8749   -0.1596 H         1 <0>         0.1301
     57 H24        10.0635  -10.1570    0.9478 H         1 <0>         0.1328
     58 H25         8.9087   -8.1171    0.2031 H         1 <0>         0.1345
@<TRIPOS>BOND
     1    1    2 1
     2    1   34 1
     3    1   35 1
     4    1   36 1
     5    2    3 1
     6    2    4 1
     7    3   37 1
     8    3   38 1
     9    3   39 1
    10    4    5 2
    11    4    6 2
    12    4    7 1
    13    7   12 ar
    14    7    8 ar
    15    8    9 ar
    16    8   40 1
    17    9   10 ar
    18    9   41 1
    19   10   11 ar
    20   10   13 1
    21   11   12 ar
    22   11   42 1
    23   12   43 1
    24   13   14 2
    25   13   15 am
    26   15   16 1
    27   15   44 1
    28   16   21 ar
    29   16   17 ar
    30   17   18 ar
    31   17   45 1
    32   18   19 ar
    33   18   46 1
    34   19   25 1
    35   19   20 ar
    36   20   21 ar
    37   20   22 1
    38   21   47 1
    39   22   23 1
    40   22   26 am
    41   23   24 1
    42   23   48 1
    43   23   49 1
    44   24   25 1
    45   24   50 1
    46   24   51 1
    47   25   52 1
    48   25   53 1
    49   26   27 2
    50   26   28 1
    51   28   33 ar
    52   28   29 ar
    53   29   30 ar
    54   29   54 1
    55   30   31 ar
    56   30   55 1
    57   31   32 ar
    58   31   56 1
    59   32   33 ar
    60   32   57 1
    61   33   58 1
@<TRIPOS>MOLECULE
ZINC46124307
   61    64     0     0     0
SMALL
USER_CHARGES

@<TRIPOS>ATOM
      1 C1          0.8336    1.5302    0.3661 C.3       1 <0>        -0.1158
      2 C2          0.7764    0.0250    0.3221 C.ar      1 <0>        -0.0941
      3 C3          0.0098   -0.6085   -0.6388 C.ar      1 <0>        -0.1008
      4 C4         -0.0445   -1.9878   -0.6821 C.ar      1 <0>        -0.1320
      5 C5          0.6719   -2.7388    0.2409 C.ar      1 <0>         0.1331
      6 C6          1.4409   -2.0994    1.2048 C.ar      1 <0>        -0.1136
      7 C7          1.4950   -0.7198    1.2393 C.ar      1 <0>        -0.1009
      8 N1          0.6188   -4.1354    0.2002 N.am      1 <0>        -0.6451
      9 C8          0.6836   -4.8459    1.3436 C.2       1 <0>         0.6189
     10 O1          0.6975   -4.2723    2.4160 O.2       1 <0>        -0.4954
     11 C9          0.7375   -6.3168    1.2946 C.2       1 <0>        -0.0512
     12 N2          0.7396   -7.1362    0.2467 N.2       1 <0>        -0.2044
     13 N3          0.7924   -8.3823    0.4499 N.2       1 <0>        -0.2864
     14 C10         0.8453   -8.8909    1.6649 C.2       1 <0>         0.0167
     15 S1          0.8267   -7.5061    2.6259 S.3       1 <0>         0.2154
     16 C11         0.9117  -10.3364    2.0857 C.3       1 <0>        -0.0119
     17 H1          0.9436  -10.3975    3.1736 H         1 <0>         0.1074
     18 C12         2.1701  -10.9815    1.5007 C.3       1 <0>        -0.1059
     19 C13         2.2556  -12.4406    1.9545 C.3       1 <0>        -0.1396
     20 C14         1.0341  -13.2051    1.4347 C.3       1 <0>         0.1052
     21 N4         -0.1823  -12.5072    1.8729 N.pl3     1 <0>        -0.9935
     22 C15        -0.3255  -11.0770    1.5682 C.3       1 <0>         0.1348
     23 S2         -1.3701  -13.3171    2.6949 S.o2      1 <0>         2.6914
     24 O2         -2.5963  -12.6748    2.3740 O.2       1 <0>        -0.9526
     25 O3         -1.1521  -14.7021    2.4634 O.2       1 <0>        -0.9473
     26 C16        -1.0932  -13.0441    4.4134 C.ar      1 <0>        -0.6853
     27 C17        -1.9845  -12.2807    5.1445 C.ar      1 <0>        -0.0160
     28 C18        -1.7673  -12.0666    6.4925 C.ar      1 <0>        -0.1126
     29 C19        -0.6591  -12.6161    7.1101 C.ar      1 <0>        -0.0235
     30 C20         0.2314  -13.3800    6.3795 C.ar      1 <0>        -0.1408
     31 C21         0.0119  -13.5977    5.0319 C.ar      1 <0>         0.0223
     32 C22         0.9800  -14.4350    4.2364 C.3       1 <0>        -0.1898
     33 C23        -0.4218  -12.3818    8.5797 C.3       1 <0>        -0.1292
     34 C24        -2.7383  -11.2337    7.2892 C.3       1 <0>        -0.1207
     35 H2          1.6516    1.8812   -0.2632 H         1 <0>         0.0717
     36 H3         -0.1078    1.9405    0.0006 H         1 <0>         0.0674
     37 H4          0.9985    1.8578    1.3925 H         1 <0>         0.0674
     38 H5         -0.5473   -0.0240   -1.3559 H         1 <0>         0.1292
     39 H6         -0.6437   -2.4819   -1.4326 H         1 <0>         0.1293
     40 H7          1.9989   -2.6804    1.9242 H         1 <0>         0.1345
     41 H8          2.0960   -0.2220    1.9859 H         1 <0>         0.1280
     42 H9          0.5352   -4.5930   -0.6510 H         1 <0>         0.4224
     43 H10         2.1262  -10.9416    0.4124 H         1 <0>         0.0849
     44 H11         3.0505  -10.4409    1.8485 H         1 <0>         0.0732
     45 H12         3.1641  -12.8927    1.5567 H         1 <0>         0.0901
     46 H13         2.2746  -12.4824    3.0435 H         1 <0>         0.0763
     47 H14         1.0622  -13.2418    0.3457 H         1 <0>         0.0846
     48 H15         1.0389  -14.2183    1.8367 H         1 <0>         0.1036
     49 H16        -1.2171  -10.6859    2.0582 H         1 <0>         0.0942
     50 H17        -0.4088  -10.9401    0.4900 H         1 <0>         0.0958
     51 H18        -2.8502  -11.8515    4.6621 H         1 <0>         0.1421
     52 H19         1.0973  -13.8090    6.8618 H         1 <0>         0.1321
     53 H20         1.7919  -13.8050    3.8730 H         1 <0>         0.0916
     54 H21         1.3871  -15.2218    4.8715 H         1 <0>         0.0863
     55 H22         0.4614  -14.8838    3.3893 H         1 <0>         0.1087
     56 H23        -0.9069  -13.1695    9.1562 H         1 <0>         0.0806
     57 H24         0.6495  -12.3916    8.7809 H         1 <0>         0.0723
     58 H25        -0.8362  -11.4149    8.8650 H         1 <0>         0.0777
     59 H26        -3.5148  -11.8772    7.7027 H         1 <0>         0.0748
     60 H27        -2.2086  -10.7355    8.1012 H         1 <0>         0.0740
     61 H28        -3.1936  -10.4860    6.6398 H         1 <0>         0.0703
@<TRIPOS>BOND
     1    1    2 1
     2    1   35 1
     3    1   36 1
     4    1   37 1
     5    2    7 ar
     6    2    3 ar
     7    3    4 ar
     8    3   38 1
     9    4    5 ar
    10    4   39 1
    11    5    6 ar
    12    5    8 1
    13    6    7 ar
    14    6   40 1
    15    7   41 1
    16    8    9 am
    17    8   42 1
    18    9   10 2
    19    9   11 1
    20   11   15 1
    21   11   12 2
    22   12   13 1
    23   13   14 2
    24   14   15 1
    25   14   16 1
    26   16   17 1
    27   16   22 1
    28   16   18 1
    29   18   19 1
    30   18   43 1
    31   18   44 1
    32   19   20 1
    33   19   45 1
    34   19   46 1
    35   20   21 1
    36   20   47 1
    37   20   48 1
    38   21   22 1
    39   21   23 1
    40   22   49 1
    41   22   50 1
    42   23   24 2
    43   23   25 2
    44   23   26 1
    45   26   31 ar
    46   26   27 ar
    47   27   28 ar
    48   27   51 1
    49   28   29 ar
    50   28   34 1
    51   29   30 ar
    52   29   33 1
    53   30   31 ar
    54   30   52 1
    55   31   32 1
    56   32   53 1
    57   32   54 1
    58   32   55 1
    59   33   56 1
    60   33   57 1
    61   33   58 1
    62   34   59 1
    63   34   60 1
    64   34   61 1
@<TRIPOS>MOLECULE
ZINC04918752
   45    48     0     0     0
SMALL
USER_CHARGES
2-(o-tolyl)-3-(p-tolylamino)isoindolin-1-one
@<TRIPOS>ATOM
      1 C1          2.2856   11.2004   -0.8365 C.3       1 <0>        -0.1091
      2 C2          1.7136    9.8089   -0.9244 C.ar      1 <0>        -0.1356
      3 C3          1.3169    9.1522    0.2261 C.ar      1 <0>        -0.0719
      4 C4          0.7928    7.8768    0.1492 C.ar      1 <0>        -0.1847
      5 C5          0.6643    7.2537   -1.0857 C.ar      1 <0>         0.2066
      6 C6          1.0687    7.9142   -2.2389 C.ar      1 <0>        -0.1800
      7 C7          1.5871    9.1915   -2.1553 C.ar      1 <0>        -0.0736
      8 N1          0.1351    5.9636   -1.1671 N.pl3     1 <0>        -0.7345
      9 C8         -0.1318    5.2029    0.0561 C.3       1 <0>         0.4036
     10 H1          0.3765    5.6639    0.9030 H         1 <0>         0.1209
     11 C9          0.3281    3.7761   -0.1102 C.ar      1 <0>        -0.0968
     12 C10         1.5539    3.2040   -0.3605 C.ar      1 <0>        -0.0822
     13 C11         1.6668    1.8276   -0.4627 C.ar      1 <0>        -0.0879
     14 C12         0.5496    1.0248   -0.3132 C.ar      1 <0>        -0.1147
     15 C13        -0.6852    1.5884   -0.0677 C.ar      1 <0>        -0.0467
     16 C14        -0.8062    2.9752    0.0419 C.ar      1 <0>        -0.1468
     17 C15        -1.9625    3.8546    0.2983 C.2       1 <0>         0.5640
     18 O1         -3.1019    3.4699    0.4758 O.2       1 <0>        -0.5038
     19 N2         -1.5762    5.1420    0.3071 N.am      1 <0>        -0.5779
     20 C16        -2.4130    6.2421    0.5200 C.ar      1 <0>         0.1477
     21 C17        -2.6265    6.7153    1.8085 C.ar      1 <0>        -0.1057
     22 C18        -3.4496    7.8047    2.0147 C.ar      1 <0>        -0.1172
     23 C19        -4.0698    8.4178    0.9413 C.ar      1 <0>        -0.1049
     24 C20        -3.8632    7.9463   -0.3420 C.ar      1 <0>        -0.1145
     25 C21        -3.0369    6.8603   -0.5557 C.ar      1 <0>        -0.0626
     26 C22        -2.8122    6.3471   -1.9547 C.3       1 <0>        -0.1200
     27 H2          3.3672   11.1416   -0.7149 H         1 <0>         0.0653
     28 H3          2.0518   11.7477   -1.7497 H         1 <0>         0.0625
     29 H4          1.8515   11.7183    0.0187 H         1 <0>         0.0624
     30 H5          1.4174    9.6371    1.1859 H         1 <0>         0.1204
     31 H6          0.4834    7.3643    1.0481 H         1 <0>         0.1168
     32 H7          0.9743    7.4309   -3.2001 H         1 <0>         0.1199
     33 H8          1.8979    9.7072   -3.0519 H         1 <0>         0.1214
     34 H9         -0.0558    5.5715   -2.0335 H         1 <0>         0.4025
     35 H10         2.4277    3.8279   -0.4769 H         1 <0>         0.1337
     36 H11         2.6295    1.3794   -0.6592 H         1 <0>         0.1371
     37 H12         0.6442   -0.0481   -0.3936 H         1 <0>         0.1372
     38 H13        -1.5554    0.9585    0.0435 H         1 <0>         0.1357
     39 H14        -2.1460    6.2342    2.6476 H         1 <0>         0.1237
     40 H15        -3.6128    8.1756    3.0158 H         1 <0>         0.1283
     41 H16        -4.7166    9.2669    1.1057 H         1 <0>         0.1269
     42 H17        -4.3487    8.4275   -1.1781 H         1 <0>         0.1267
     43 H18        -3.5618    5.5913   -2.1892 H         1 <0>         0.0688
     44 H19        -2.8948    7.1723   -2.6621 H         1 <0>         0.0679
     45 H20        -1.8177    5.9066   -2.0248 H         1 <0>         0.0713
@<TRIPOS>BOND
     1    1    2 1
     2    1   27 1
     3    1   28 1
     4    1   29 1
     5    2    7 ar
     6    2    3 ar
     7    3    4 ar
     8    3   30 1
     9    4    5 ar
    10    4   31 1
    11    5    6 ar
    12    5    8 1
    13    6    7 ar
    14    6   32 1
    15    7   33 1
    16    8    9 1
    17    8   34 1
    18    9   10 1
    19    9   19 1
    20    9   11 1
    21   11   16 ar
    22   11   12 ar
    23   12   13 ar
    24   12   35 1
    25   13   14 ar
    26   13   36 1
    27   14   15 ar
    28   14   37 1
    29   15   16 ar
    30   15   38 1
    31   16   17 1
    32   17   18 2
    33   17   19 am
    34   19   20 1
    35   20   25 ar
    36   20   21 ar
    37   21   22 ar
    38   21   39 1
    39   22   23 ar
    40   22   40 1
    41   23   24 ar
    42   23   41 1
    43   24   25 ar
    44   24   42 1
    45   25   26 1
    46   26   43 1
    47   26   44 1
    48   26   45 1
@<TRIPOS>MOLECULE
ZINC08967560
   34    36     0     0     0
SMALL
USER_CHARGES
5-chloro-N-(4-isopropylbenzothiazol-2-yl)-thiophene-2-carboxamide
@<TRIPOS>ATOM
      1 C1         10.4120   -1.5305   -1.3521 C.3       1 <0>        -0.1428
      2 C2          9.6848   -1.0536   -0.0933 C.3       1 <0>        -0.0598
      3 C3         10.4366   -1.5428    1.1462 C.3       1 <0>        -0.1428
      4 C4          9.6293    0.4523   -0.0854 C.ar      1 <0>        -0.0214
      5 C5         10.7948    1.1737   -0.0933 C.ar      1 <0>        -0.1085
      6 C6         10.7889    2.5607   -0.0860 C.ar      1 <0>        -0.0957
      7 C7          9.5801    3.2328   -0.0705 C.ar      1 <0>        -0.0662
      8 C8          8.4083    2.5191   -0.0627 C.ar      1 <0>        -0.1745
      9 C9          8.3756    1.1056   -0.0698 C.ar      1 <0>         0.1008
     10 N1          7.1451    0.5489   -0.0613 N.2       1 <0>        -0.5341
     11 C10         6.0459    1.2669   -0.0472 C.2       1 <0>         0.3528
     12 S1          6.6815    2.9373   -0.0517 S.3       1 <0>         0.1034
     13 N2          4.7299    0.8390   -0.0376 N.am      1 <0>        -0.6062
     14 C11         3.7282    1.7407   -0.0235 C.2       1 <0>         0.6144
     15 O1          3.9812    2.9313   -0.0192 O.2       1 <0>        -0.4752
     16 C12         2.3361    1.2881   -0.0133 C.2       1 <0>        -0.2488
     17 C13         1.1720    2.0420    0.0018 C.2       1 <0>        -0.0398
     18 C14        -0.0164    1.3567    0.0095 C.2       1 <0>        -0.1636
     19 C15         0.0021   -0.0041    0.0020 C.2       1 <0>        -0.1186
     20 S2          1.6950   -0.3768   -0.0161 S.3       1 <0>         0.2076
     21 Cl1        -1.3436   -1.1008    0.0085 Cl        1 <0>         0.0361
     22 H1         11.4255   -1.1295   -1.3601 H         1 <0>         0.0571
     23 H2         10.4522   -2.6198   -1.3579 H         1 <0>         0.0601
     24 H3          9.8764   -1.1820   -2.2352 H         1 <0>         0.0546
     25 H4          8.6713   -1.4546   -0.0853 H         1 <0>         0.0894
     26 H5          9.9185   -1.2030    2.0430 H         1 <0>         0.0546
     27 H6         10.4768   -2.6320    1.1405 H         1 <0>         0.0601
     28 H7         11.4501   -1.1418    1.1382 H         1 <0>         0.0571
     29 H8         11.7393    0.6501   -0.1054 H         1 <0>         0.1332
     30 H9         11.7186    3.1102   -0.0926 H         1 <0>         0.1386
     31 H10         9.5588    4.3126   -0.0643 H         1 <0>         0.1333
     32 H11         4.5283   -0.1098   -0.0411 H         1 <0>         0.4262
     33 H12         1.1999    3.1216    0.0070 H         1 <0>         0.1624
     34 H13        -0.9552    1.8906    0.0169 H         1 <0>         0.1562
@<TRIPOS>BOND
     1    1    2 1
     2    1   22 1
     3    1   23 1
     4    1   24 1
     5    2    3 1
     6    2    4 1
     7    2   25 1
     8    3   26 1
     9    3   27 1
    10    3   28 1
    11    4    9 ar
    12    4    5 ar
    13    5    6 ar
    14    5   29 1
    15    6    7 ar
    16    6   30 1
    17    7    8 ar
    18    7   31 1
    19    8   12 1
    20    8    9 ar
    21    9   10 1
    22   10   11 2
    23   11   12 1
    24   11   13 1
    25   13   14 am
    26   13   32 1
    27   14   15 2
    28   14   16 1
    29   16   20 1
    30   16   17 2
    31   17   18 1
    32   17   33 1
    33   18   19 2
    34   18   34 1
    35   19   20 1
    36   19   21 1
@<TRIPOS>MOLECULE
ZINC22540292
   42    43     0     0     0
SMALL
USER_CHARGES
4-chloro-N-[(1R)-1-(2,4,5-trimethylphenyl)ethyl]benzenesulfonamide
@<TRIPOS>ATOM
      1 C1         -5.4199   -2.0026    0.0432 C.3       1 <0>        -0.1169
      2 C2         -4.0057   -1.4819    0.0324 C.ar      1 <0>        -0.0815
      3 C3         -3.4047   -1.1383   -1.1643 C.ar      1 <0>        -0.1132
      4 C4         -2.1097   -0.6553   -1.1737 C.ar      1 <0>        -0.0773
      5 C5         -1.4117   -0.5257    0.0127 C.ar      1 <0>        -0.0867
      6 C6         -2.0126   -0.8692    1.2091 C.ar      1 <0>        -0.1005
      7 C7         -3.3098   -1.3473    1.2189 C.ar      1 <0>        -0.0890
      8 C8         -3.9651   -1.7214    2.5234 C.3       1 <0>        -0.1163
      9 C9          0.0021   -0.0041    0.0020 C.3       1 <0>         0.1889
     10 H1          0.5340   -0.3872   -0.8814 H         1 <0>         0.1046
     11 C10        -0.0187    1.5258    0.0104 C.3       1 <0>        -0.1754
     12 N1          0.7106   -0.4894    1.1889 N.pl3     1 <0>        -1.1162
     13 S1          2.3218   -0.8609    1.0971 S.o2      1 <0>         2.6921
     14 O1          2.7188   -1.2710    2.3985 O.2       1 <0>        -0.9535
     15 O2          2.4829   -1.6905   -0.0453 O.2       1 <0>        -0.9494
     16 C11         3.1835    0.6378    0.7566 C.ar      1 <0>        -0.6821
     17 C12         3.4129    1.0210   -0.5516 C.ar      1 <0>        -0.0087
     18 C13         4.0838    2.1994   -0.8194 C.ar      1 <0>        -0.1308
     19 C14         4.5357    2.9898    0.2223 C.ar      1 <0>         0.0177
     20 C15         4.3107    2.6030    1.5315 C.ar      1 <0>        -0.1310
     21 C16         3.6348    1.4272    1.7979 C.ar      1 <0>        -0.0051
     22 Cl1         5.3842    4.4667   -0.1131 Cl        1 <0>        -0.0518
     23 C17        -1.4568   -0.2750   -2.4775 C.3       1 <0>        -0.1271
     24 H2         -5.8051   -2.0390   -0.9865 H         1 <0>         0.0648
     25 H3         -6.0517   -1.3352    0.6476 H         1 <0>         0.0702
     26 H4         -5.4351   -3.0136    0.4764 H         1 <0>         0.0705
     27 H5         -3.9487   -1.2431   -2.0915 H         1 <0>         0.1234
     28 H6         -1.4689   -0.7637    2.1363 H         1 <0>         0.1207
     29 H7         -3.2612   -1.5472    3.3505 H         1 <0>         0.0648
     30 H8         -4.2478   -2.7842    2.5002 H         1 <0>         0.0704
     31 H9         -4.8646   -1.1059    2.6716 H         1 <0>         0.0698
     32 H10         1.0133    1.9066    0.0026 H         1 <0>         0.0637
     33 H11        -0.5336    1.8805    0.9154 H         1 <0>         0.0693
     34 H12        -0.5507    1.8901   -0.8808 H         1 <0>         0.0757
     35 H13         0.2228   -0.4523    2.1741 H         1 <0>         0.4400
     36 H14         3.0640    0.4017   -1.3647 H         1 <0>         0.1494
     37 H15         4.2591    2.5008   -1.8415 H         1 <0>         0.1454
     38 H16         4.6630    3.2198    2.3450 H         1 <0>         0.1451
     39 H17         3.4588    1.1253    2.8198 H         1 <0>         0.1503
     40 H18        -0.4354    0.0849   -2.2848 H         1 <0>         0.0684
     41 H19        -2.0410    0.5215   -2.9615 H         1 <0>         0.0733
     42 H20        -1.4174   -1.1538   -3.1379 H         1 <0>         0.0739
@<TRIPOS>BOND
     1    1    2 1
     2    1   24 1
     3    1   25 1
     4    1   26 1
     5    2    7 ar
     6    2    3 ar
     7    3    4 ar
     8    3   27 1
     9    4    5 ar
    10    4   23 1
    11    5    6 ar
    12    5    9 1
    13    6    7 ar
    14    6   28 1
    15    7    8 1
    16    8   29 1
    17    8   30 1
    18    8   31 1
    19    9   10 1
    20    9   11 1
    21    9   12 1
    22   11   32 1
    23   11   33 1
    24   11   34 1
    25   12   13 1
    26   12   35 1
    27   13   14 2
    28   13   15 2
    29   13   16 1
    30   16   21 ar
    31   16   17 ar
    32   17   18 ar
    33   17   36 1
    34   18   19 ar
    35   18   37 1
    36   19   20 ar
    37   19   22 1
    38   20   21 ar
    39   20   38 1
    40   21   39 1
    41   23   40 1
    42   23   41 1
    43   23   42 1
@<TRIPOS>MOLECULE
ZINC37278047
   42    44     0     0     0
SMALL
USER_CHARGES

@<TRIPOS>ATOM
      1 C1         -0.0187    1.5258    0.0104 C.3       1 <0>        -0.1726
      2 C2          0.0021   -0.0041    0.0020 C.3       1 <0>         0.1490
      3 H1          0.5123   -0.3556   -0.8948 H         1 <0>         0.0819
      4 C3          0.7421   -0.5109    1.2415 C.3       1 <0>        -0.0925
      5 C4          0.7628   -2.0407    1.2331 C.3       1 <0>        -0.1135
      6 C5          1.5028   -2.5476    2.4727 C.3       1 <0>        -0.1201
      7 C6          2.9382   -2.0180    2.4618 C.3       1 <0>        -0.1213
      8 C7          2.9174   -0.4882    2.4702 C.3       1 <0>        -0.1193
      9 C8          2.1775    0.0187    1.2307 C.3       1 <0>        -0.1131
     10 N1         -1.3723   -0.5112    0.0124 N.pl3     1 <0>        -0.7300
     11 C9         -2.0770   -0.6478   -1.1893 C.ar      1 <0>         0.2587
     12 C10        -1.4722   -0.3084   -2.3915 C.ar      1 <0>        -0.1937
     13 C11        -2.1699   -0.4444   -3.5818 C.ar      1 <0>         0.1193
     14 C12        -3.4751   -0.9225   -3.5693 C.ar      1 <0>        -0.0051
     15 C13        -4.0775   -1.2590   -2.3665 C.ar      1 <0>        -0.0341
     16 C14        -3.3801   -1.1285   -1.1800 C.ar      1 <0>        -0.1702
     17 Br1        -4.2032   -1.5968    0.4567 Br        1 <0>        -0.0430
     18 O1         -4.1737   -1.0702   -4.7295 O.3       1 <0>        -0.3061
     19 C15        -3.6723   -0.3742   -5.8757 C.3       1 <0>         0.0214
     20 C16        -2.1573   -0.6065   -5.9543 C.3       1 <0>         0.0199
     21 O2         -1.5640   -0.1037   -4.7522 O.3       1 <0>        -0.3042
     22 H2          1.0039    1.9031    0.0027 H         1 <0>         0.0694
     23 H3         -0.5459    1.8868   -0.8726 H         1 <0>         0.0599
     24 H4         -0.5289    1.8773    0.9072 H         1 <0>         0.0597
     25 H5          0.2319   -0.1594    2.1383 H         1 <0>         0.0754
     26 H6         -0.2598   -2.4180    1.2409 H         1 <0>         0.0638
     27 H7          1.2730   -2.3923    0.3363 H         1 <0>         0.0627
     28 H8          0.9926   -2.1961    3.3695 H         1 <0>         0.0610
     29 H9          1.5176   -3.6375    2.4667 H         1 <0>         0.0618
     30 H10         3.4654   -2.3791    3.3449 H         1 <0>         0.0608
     31 H11         3.4484   -2.3695    1.5650 H         1 <0>         0.0614
     32 H12         2.4073   -0.1366    3.3670 H         1 <0>         0.0617
     33 H13         3.9400   -0.1109    2.4625 H         1 <0>         0.0630
     34 H14         2.6876   -0.3328    0.3339 H         1 <0>         0.0647
     35 H15         2.1627    1.1086    1.2367 H         1 <0>         0.0683
     36 H16        -1.7940   -0.7522    0.8520 H         1 <0>         0.4045
     37 H17        -0.4578    0.0621   -2.3997 H         1 <0>         0.1428
     38 H18        -5.0925   -1.6279   -2.3570 H         1 <0>         0.1434
     39 H19        -4.1503   -0.7580   -6.7770 H         1 <0>         0.1230
     40 H20        -3.8760    0.6920   -5.7765 H         1 <0>         0.0769
     41 H21        -1.9533   -1.6732   -6.0468 H         1 <0>         0.0803
     42 H22        -1.7485   -0.0775   -6.8152 H         1 <0>         0.1241
@<TRIPOS>BOND
     1    1    2 1
     2    1   22 1
     3    1   23 1
     4    1   24 1
     5    2    3 1
     6    2    4 1
     7    2   10 1
     8    4    9 1
     9    4    5 1
    10    4   25 1
    11    5    6 1
    12    5   26 1
    13    5   27 1
    14    6    7 1
    15    6   28 1
    16    6   29 1
    17    7    8 1
    18    7   30 1
    19    7   31 1
    20    8    9 1
    21    8   32 1
    22    8   33 1
    23    9   34 1
    24    9   35 1
    25   10   11 1
    26   10   36 1
    27   11   16 ar
    28   11   12 ar
    29   12   13 ar
    30   12   37 1
    31   13   21 1
    32   13   14 ar
    33   14   15 ar
    34   14   18 1
    35   15   16 ar
    36   15   38 1
    37   16   17 1
    38   18   19 1
    39   19   20 1
    40   19   39 1
    41   19   40 1
    42   20   21 1
    43   20   41 1
    44   20   42 1
@<TRIPOS>MOLECULE
ZINC54732947
   37    38     0     0     0
SMALL
USER_CHARGES

@<TRIPOS>ATOM
      1 C1         -0.0184    1.5028    0.0103 C.3       1 <0>        -0.0732
      2 C2          0.0021   -0.0041    0.0020 C.2       1 <0>        -0.1320
      3 C3         -1.0392   -0.8719    0.0017 C.2       1 <0>        -0.1642
      4 C4         -0.7802   -2.2296   -0.0075 C.2       1 <0>        -0.1340
      5 C5          0.5074   -2.6532   -0.0160 C.2       1 <0>        -0.1630
      6 S1          1.4039   -1.1093   -0.0179 S.3       1 <0>         0.0331
      7 C6          1.0430   -4.0617   -0.0269 C.3       1 <0>         0.2492
      8 H1          0.2712   -4.7467    0.3242 H         1 <0>         0.1107
      9 C7          1.4518   -4.4409   -1.4516 C.3       1 <0>        -0.1608
     10 N1          2.2097   -4.1473    0.8550 N.am      1 <0>        -0.7399
     11 C8          2.5528   -5.3284    1.4061 C.2       1 <0>         0.7097
     12 O1          1.8939   -6.3230    1.1712 O.2       1 <0>        -0.5770
     13 N2          3.6261   -5.4072    2.2174 N.am      1 <0>        -0.6282
     14 C9          4.4199   -4.2088    2.5003 C.3       1 <0>         0.0760
     15 C10         3.9990   -6.6911    2.8164 C.3       1 <0>         0.2155
     16 C11         4.9532   -7.4141    1.9011 C.2       1 <0>        -0.1615
     17 C12         6.3070   -7.3660    1.8698 C.2       1 <0>        -0.1401
     18 C13         6.9837   -8.1236    0.9318 C.2       1 <0>        -0.1434
     19 C14         6.2714   -8.8926    0.0707 C.2       1 <0>        -0.1280
     20 S2          4.5932   -8.5621    0.5821 S.3       1 <0>         0.1285
     21 Cl1         6.8436   -9.9334   -1.1955 Cl        1 <0>         0.0145
     22 H2          1.0042    1.8801    0.0026 H         1 <0>         0.0732
     23 H3         -0.5455    1.8639   -0.8728 H         1 <0>         0.0828
     24 H4         -0.5286    1.8543    0.9071 H         1 <0>         0.0826
     25 H5         -2.0560   -0.5079    0.0090 H         1 <0>         0.1357
     26 H6         -1.5916   -2.9424   -0.0076 H         1 <0>         0.1358
     27 H7          1.8393   -5.4597   -1.4595 H         1 <0>         0.0723
     28 H8          0.5838   -4.3773   -2.1078 H         1 <0>         0.0718
     29 H9          2.2236   -3.7560   -1.8027 H         1 <0>         0.0591
     30 H10         2.7353   -3.3538    1.0424 H         1 <0>         0.3965
     31 H11         4.0191   -3.7071    3.3811 H         1 <0>         0.0624
     32 H12         5.4556   -4.4942    2.6846 H         1 <0>         0.0783
     33 H13         4.3756   -3.5336    1.6458 H         1 <0>         0.0663
     34 H14         4.4802   -6.5169    3.7787 H         1 <0>         0.1067
     35 H15         3.1050   -7.2975    2.9616 H         1 <0>         0.1045
     36 H16         6.8495   -6.7447    2.5671 H         1 <0>         0.1396
     37 H17         8.0625   -8.1032    0.8851 H         1 <0>         0.1403
@<TRIPOS>BOND
     1    1    2 1
     2    1   22 1
     3    1   23 1
     4    1   24 1
     5    2    6 1
     6    2    3 2
     7    3    4 1
     8    3   25 1
     9    4    5 2
    10    4   26 1
    11    5    6 1
    12    5    7 1
    13    7    8 1
    14    7    9 1
    15    7   10 1
    16    9   27 1
    17    9   28 1
    18    9   29 1
    19   10   11 am
    20   10   30 1
    21   11   12 2
    22   11   13 am
    23   13   14 1
    24   13   15 1
    25   14   31 1
    26   14   32 1
    27   14   33 1
    28   15   16 1
    29   15   34 1
    30   15   35 1
    31   16   20 1
    32   16   17 2
    33   17   18 1
    34   17   36 1
    35   18   19 2
    36   18   37 1
    37   19   20 1
    38   19   21 1
@<TRIPOS>MOLECULE
ZINC36818464
   31    32     0     0     0
SMALL
USER_CHARGES

@<TRIPOS>ATOM
      1 C1         -0.0184    1.5028    0.0103 C.3       1 <0>        -0.0711
      2 C2          0.0021   -0.0041    0.0020 C.2       1 <0>        -0.1316
      3 C3         -1.0392   -0.8719    0.0017 C.2       1 <0>        -0.1897
      4 C4         -0.7802   -2.2296   -0.0075 C.2       1 <0>        -0.0273
      5 C5          0.5074   -2.6532   -0.0160 C.2       1 <0>        -0.6858
      6 S1          1.4039   -1.1093   -0.0179 S.3       1 <0>         0.1491
      7 S2          1.1337   -4.3001   -0.0287 S.o2      1 <0>         2.6500
      8 O1          2.4446   -4.2402    0.5164 O.2       1 <0>        -1.0016
      9 O2          0.1166   -5.1256    0.5220 O.2       1 <0>        -1.0002
     10 N1          1.3003   -4.7483   -1.6141 N.2       1 <0>        -1.0123
     11 C6          1.7793   -6.0099   -1.9310 C.2       1 <0>         0.4385
     12 N2          1.9811   -6.5328   -3.1217 N.2       1 <0>        -0.5809
     13 C7          2.4477   -7.7617   -3.2566 C.2       1 <0>         0.1213
     14 C8          2.7059   -8.4509   -2.1194 C.2       1 <0>        -0.2979
     15 S3          2.2512   -7.2422   -0.8865 S.3       1 <0>        -0.1200
     16 C9          2.6817   -8.3698   -4.6155 C.3       1 <0>        -0.0276
     17 C10         1.4118   -8.2975   -5.4236 C.2       1 <0>         0.4555
     18 O3          0.4186   -7.8029   -4.9453 O.2       1 <0>        -0.4708
     19 O4          1.3841   -8.7825   -6.6749 O.3       1 <0>        -0.3655
     20 C11         0.1470   -8.6807   -7.3829 C.3       1 <0>         0.0361
     21 H1          1.0042    1.8801    0.0026 H         1 <0>         0.0743
     22 H2         -0.5455    1.8639   -0.8728 H         1 <0>         0.0833
     23 H3         -0.5286    1.8543    0.9071 H         1 <0>         0.0823
     24 H4         -2.0560   -0.5079    0.0090 H         1 <0>         0.1375
     25 H5         -1.5916   -2.9424   -0.0076 H         1 <0>         0.1447
     26 H6          3.0857   -9.4540   -1.9932 H         1 <0>         0.1742
     27 H7          3.4708   -7.8200   -5.1285 H         1 <0>         0.1138
     28 H8          2.9805   -9.4118   -4.5007 H         1 <0>         0.1135
     29 H9         -0.6275   -9.2237   -6.8411 H         1 <0>         0.0556
     30 H10        -0.1372   -7.6320   -7.4690 H         1 <0>         0.0576
     31 H11         0.2619   -9.1089   -8.3787 H         1 <0>         0.0950
@<TRIPOS>BOND
     1    1    2 1
     2    1   21 1
     3    1   22 1
     4    1   23 1
     5    2    6 1
     6    2    3 2
     7    3    4 1
     8    3   24 1
     9    4    5 2
    10    4   25 1
    11    5    6 1
    12    5    7 1
    13    7    8 2
    14    7    9 2
    15    7   10 1
    16   10   11 1
    17   11   15 1
    18   11   12 2
    19   12   13 1
    20   13   14 2
    21   13   16 1
    22   14   15 1
    23   14   26 1
    24   16   17 1
    25   16   27 1
    26   16   28 1
    27   17   18 2
    28   17   19 1
    29   19   20 1
    30   20   29 1
    31   20   30 1
    32   20   31 1
@<TRIPOS>MOLECULE
ZINC42343738
   36    37     0     0     0
SMALL
USER_CHARGES

@<TRIPOS>ATOM
      1 C1         -0.0187    1.5258    0.0104 C.3       1 <0>        -0.1553
      2 C2          0.0021   -0.0041    0.0020 C.3       1 <0>        -0.1156
      3 C3          0.7421   -0.5109    1.2415 C.3       1 <0>        -0.1133
      4 C4          0.7628   -2.0407    1.2331 C.3       1 <0>        -0.6106
      5 S1          1.6402   -2.6417    2.7027 S.o2      1 <0>         2.5760
      6 O1          3.0192   -2.3092    2.6195 O.2       1 <0>        -1.0013
      7 O2          0.8928   -2.3449    3.8744 O.2       1 <0>        -1.0013
      8 N1          1.5954   -4.2925    2.5798 N.2       1 <0>        -1.0719
      9 C5          2.1497   -5.0285    3.4982 C.2       1 <0>         0.5581
     10 O3          2.7627   -4.4453    4.5535 O.3       1 <0>        -0.6874
     11 C6          2.1097   -6.5022    3.3884 C.2       1 <0>         0.0970
     12 C7          1.5317   -7.2137    2.3778 C.2       1 <0>        -0.0402
     13 N2          1.7187   -8.5347    2.6598 N.pl3     1 <0>        -0.3738
     14 C8          1.3549   -9.6760    2.0028 C.2       1 <0>         0.0631
     15 C9          1.6685  -10.8879    2.5050 C.2       1 <0>        -0.1494
     16 C10         2.3765  -10.9934    3.7144 C.2       1 <0>        -0.0874
     17 C11         2.7458   -9.8669    4.3795 C.2       1 <0>        -0.0717
     18 C12         2.4106   -8.6054    3.8427 C.2       1 <0>         0.2052
     19 N3          2.6418   -7.3728    4.2644 N.2       1 <0>        -0.4493
     20 C13         2.7243  -12.3496    4.2719 C.3       1 <0>        -0.1056
     21 H1          1.0039    1.9031    0.0027 H         1 <0>         0.0551
     22 H2         -0.5459    1.8868   -0.8726 H         1 <0>         0.0528
     23 H3         -0.5289    1.8773    0.9072 H         1 <0>         0.0551
     24 H4         -1.0205   -0.3814    0.0098 H         1 <0>         0.0633
     25 H5          0.5123   -0.3556   -0.8948 H         1 <0>         0.0633
     26 H6          1.7647   -0.1336    1.2338 H         1 <0>         0.0736
     27 H7          0.2319   -0.1594    2.1383 H         1 <0>         0.0736
     28 H8         -0.2598   -2.4180    1.2409 H         1 <0>         0.1218
     29 H9          1.2730   -2.3923    0.3363 H         1 <0>         0.1218
     30 H10         1.0220   -6.8073    1.5168 H         1 <0>         0.1962
     31 H11         0.8105   -9.6072    1.0725 H         1 <0>         0.1602
     32 H12         1.3739  -11.7817    1.9752 H         1 <0>         0.1446
     33 H13         3.2898   -9.9365    5.3099 H         1 <0>         0.1465
     34 H14         2.3472  -13.1244    3.6043 H         1 <0>         0.0656
     35 H15         3.8071  -12.4400    4.3585 H         1 <0>         0.0707
     36 H16         2.2701  -12.4653    5.2560 H         1 <0>         0.0707
@<TRIPOS>BOND
     1    1    2 1
     2    1   21 1
     3    1   22 1
     4    1   23 1
     5    2    3 1
     6    2   24 1
     7    2   25 1
     8    3    4 1
     9    3   26 1
    10    3   27 1
    11    4    5 1
    12    4   28 1
    13    4   29 1
    14    5    6 2
    15    5    7 2
    16    5    8 1
    17    8    9 2
    18    9   10 1
    19    9   11 1
    20   11   19 1
    21   11   12 2
    22   12   13 1
    23   12   30 1
    24   13   18 1
    25   13   14 1
    26   14   15 2
    27   14   31 1
    28   15   16 1
    29   15   32 1
    30   16   17 2
    31   16   20 1
    32   17   18 1
    33   17   33 1
    34   18   19 2
    35   20   34 1
    36   20   35 1
    37   20   36 1
@<TRIPOS>MOLECULE
ZINC48756311
   41    41     0     0     0
SMALL
USER_CHARGES

@<TRIPOS>ATOM
      1 C1          2.0531    1.0790   -0.3753 C.3       1 <0>        -0.1491
      2 C2          1.7859   -0.4272   -0.3503 C.3       1 <0>        -0.1195
      3 C3          0.2848   -0.6763   -0.1902 C.3       1 <0>        -0.0025
      4 C4          0.0216   -2.1599   -0.1656 C.2       1 <0>        -0.0799
      5 N1         -0.0198   -2.9757    0.8654 N.2       1 <0>        -0.2733
      6 N2         -0.2541   -4.2108    0.7367 N.2       1 <0>        -0.3241
      7 C5         -0.4654   -4.6965   -0.4867 C.2       1 <0>         0.3222
      8 S1         -0.3031   -3.2005   -1.4514 S.3       1 <0>        -0.0241
      9 N3         -0.7322   -5.9605   -0.8842 N.2       1 <0>        -0.5926
     10 C6         -0.8148   -6.9205    0.0002 C.2       1 <0>         0.4051
     11 O1         -0.6330   -6.6482    1.3137 O.3       1 <0>        -0.6019
     12 C7         -1.1068   -8.3040   -0.4348 C.2       1 <0>         0.5554
     13 O2         -1.0528   -9.2170    0.3656 O.2       1 <0>        -0.5290
     14 N4         -1.4327   -8.5520   -1.7189 N.am      1 <0>        -0.5918
     15 C8         -1.4509   -7.4591   -2.6942 C.3       1 <0>         0.0764
     16 C9         -1.7687   -9.9146   -2.1393 C.3       1 <0>         0.1292
     17 H1         -1.7012  -10.5860   -1.2833 H         1 <0>         0.0973
     18 C10        -3.1936   -9.9398   -2.6961 C.3       1 <0>        -0.1592
     19 C11        -0.7895  -10.3700   -3.2231 C.3       1 <0>        -0.1234
     20 C12         0.6183  -10.4646   -2.6314 C.3       1 <0>        -0.1250
     21 C13         1.5975  -10.9200   -3.7153 C.3       1 <0>        -0.1479
     22 H2          3.1225    1.2565   -0.4893 H         1 <0>         0.0529
     23 H3          1.5189    1.5290   -1.2121 H         1 <0>         0.0532
     24 H4          1.7083    1.5248    0.5577 H         1 <0>         0.0544
     25 H5          2.1307   -0.8730   -1.2833 H         1 <0>         0.0624
     26 H6          2.3201   -0.8772    0.4866 H         1 <0>         0.0660
     27 H7         -0.0600   -0.2305    0.7428 H         1 <0>         0.0835
     28 H8         -0.2494   -0.2263   -1.0270 H         1 <0>         0.0758
     29 H9         -0.4423   -7.2930   -3.0727 H         1 <0>         0.0511
     30 H10        -2.1108   -7.7211   -3.5213 H         1 <0>         0.0480
     31 H11        -1.8131   -6.5499   -2.2144 H         1 <0>         0.1187
     32 H12        -3.2611   -9.2684   -3.5521 H         1 <0>         0.0594
     33 H13        -3.4436  -10.9536   -3.0088 H         1 <0>         0.0630
     34 H14        -3.8912   -9.6153   -1.9239 H         1 <0>         0.0582
     35 H15        -1.0922  -11.3475   -3.5987 H         1 <0>         0.0683
     36 H16        -0.7922   -9.6497   -4.0411 H         1 <0>         0.0659
     37 H17         0.9209   -9.4871   -2.2558 H         1 <0>         0.0642
     38 H18         0.6210  -11.1849   -1.8134 H         1 <0>         0.0606
     39 H19         2.6004  -10.9874   -3.2937 H         1 <0>         0.0507
     40 H20         1.2948  -11.8975   -4.0909 H         1 <0>         0.0497
     41 H21         1.5948  -10.1997   -4.5333 H         1 <0>         0.0517
@<TRIPOS>BOND
     1    1    2 1
     2    1   22 1
     3    1   23 1
     4    1   24 1
     5    2    3 1
     6    2   25 1
     7    2   26 1
     8    3    4 1
     9    3   27 1
    10    3   28 1
    11    4    8 1
    12    4    5 2
    13    5    6 1
    14    6    7 2
    15    7    8 1
    16    7    9 1
    17    9   10 2
    18   10   11 1
    19   10   12 1
    20   12   13 2
    21   12   14 am
    22   14   15 1
    23   14   16 1
    24   15   29 1
    25   15   30 1
    26   15   31 1
    27   16   17 1
    28   16   18 1
    29   16   19 1
    30   18   32 1
    31   18   33 1
    32   18   34 1
    33   19   20 1
    34   19   35 1
    35   19   36 1
    36   20   21 1
    37   20   37 1
    38   20   38 1
    39   21   39 1
    40   21   40 1
    41   21   41 1
@<TRIPOS>MOLECULE
ZINC41213965
   36    37     0     0     0
SMALL
USER_CHARGES

@<TRIPOS>ATOM
      1 C1          0.0086    1.5021   -0.5227 C.3       1 <0>        -0.1453
      2 C2          0.0216   -0.0210   -0.3777 C.3       1 <0>        -0.1244
      3 C3         -1.4080   -0.5556   -0.4844 C.3       1 <0>         0.0579
      4 O1         -1.3959   -1.9781   -0.3490 O.3       1 <0>        -0.2672
      5 C4         -2.5932   -2.6143   -0.4206 C.ar      1 <0>         0.1809
      6 C5         -3.7560   -1.8883   -0.6226 C.ar      1 <0>        -0.2228
      7 C6         -4.9739   -2.5367   -0.6958 C.ar      1 <0>        -0.0607
      8 C7         -5.0433   -3.9140   -0.5683 C.ar      1 <0>        -0.1703
      9 C8         -3.8969   -4.6523   -0.3664 C.ar      1 <0>        -0.0431
     10 C9         -2.6579   -4.0095   -0.2962 C.ar      1 <0>        -0.0932
     11 C10        -1.4283   -4.7921   -0.0869 C.2       1 <0>         0.1744
     12 N1         -0.2786   -4.1899   -0.0169 N.2       1 <0>        -0.1956
     13 N2          0.9009   -4.9404    0.0740 N.pl3     1 <0>        -0.3530
     14 C11         1.3077   -5.7268   -0.9664 C.2       1 <0>         0.4434
     15 O2          0.5828   -5.7973   -2.1038 O.3       1 <0>        -0.6162
     16 C12         2.4809   -6.4497   -0.8281 C.2       1 <0>        -0.0819
     17 N3          3.1742   -6.3633    0.2972 N.2       1 <0>        -0.1563
     18 N4          2.7805   -5.6195    1.2689 N.2       1 <0>        -0.3368
     19 C13         1.6601   -4.8962    1.1888 C.2       1 <0>         0.4401
     20 S1          1.1823   -3.9147    2.5076 S.2       1 <0>        -0.6523
     21 C14         2.9656   -7.3300   -1.9512 C.3       1 <0>        -0.0575
     22 H1          1.0271    1.8830   -0.4467 H         1 <0>         0.0623
     23 H2         -0.4084    1.7712   -1.4931 H         1 <0>         0.0529
     24 H3         -0.6020    1.9372    0.2685 H         1 <0>         0.0552
     25 H4          0.6322   -0.4561   -1.1689 H         1 <0>         0.0717
     26 H5          0.4386   -0.2900    0.5927 H         1 <0>         0.0817
     27 H6         -2.0186   -0.1205    0.3068 H         1 <0>         0.0599
     28 H7         -1.8251   -0.2865   -1.4548 H         1 <0>         0.0566
     29 H8         -3.7103   -0.8139   -0.7227 H         1 <0>         0.1305
     30 H9         -5.8772   -1.9660   -0.8530 H         1 <0>         0.1251
     31 H10        -6.0000   -4.4118   -0.6269 H         1 <0>         0.1275
     32 H11        -3.9555   -5.7261   -0.2667 H         1 <0>         0.1344
     33 H12        -1.4818   -5.8666    0.0085 H         1 <0>         0.1155
     34 H13         3.6144   -6.7535   -2.6106 H         1 <0>         0.0640
     35 H14         3.5222   -8.1716   -1.5388 H         1 <0>         0.0695
     36 H15         2.1109   -7.7016   -2.5163 H         1 <0>         0.0729
@<TRIPOS>BOND
     1    1    2 1
     2    1   22 1
     3    1   23 1
     4    1   24 1
     5    2    3 1
     6    2   25 1
     7    2   26 1
     8    3    4 1
     9    3   27 1
    10    3   28 1
    11    4    5 1
    12    5   10 ar
    13    5    6 ar
    14    6    7 ar
    15    6   29 1
    16    7    8 ar
    17    7   30 1
    18    8    9 ar
    19    8   31 1
    20    9   10 ar
    21    9   32 1
    22   10   11 1
    23   11   12 2
    24   11   33 1
    25   12   13 1
    26   13   19 1
    27   13   14 1
    28   14   15 1
    29   14   16 2
    30   16   17 1
    31   16   21 1
    32   17   18 2
    33   18   19 1
    34   19   20 2
    35   21   34 1
    36   21   35 1
    37   21   36 1
@<TRIPOS>MOLECULE
ZINC66579665
   34    35     0     0     0
SMALL
USER_CHARGES

@<TRIPOS>ATOM
      1 C1         -0.0143    1.3985    1.0307 C.3       1 <0>        -0.1378
      2 C2         -0.0044   -0.1236    0.8755 C.3       1 <0>        -0.0851
      3 C3          0.6118   -0.7594    2.1233 C.3       1 <0>        -0.1776
      4 C4         -1.4384   -0.6279    0.7014 C.3       1 <0>        -0.5923
      5 S1         -1.4163   -2.4112    0.3702 S.o2      1 <0>         2.5386
      6 O1         -0.8380   -2.6655   -0.9027 O.2       1 <0>        -1.0230
      7 O2         -0.9734   -3.1173    1.5211 O.2       1 <0>        -1.0175
      8 N1         -3.0089   -2.8328    0.2026 N.2       1 <0>        -1.0984
      9 C5         -3.3561   -4.1601   -0.0642 C.ar      1 <0>         0.3060
     10 C6         -2.3681   -5.1274   -0.1836 C.ar      1 <0>        -0.2405
     11 C7         -2.7132   -6.4390   -0.4479 C.ar      1 <0>        -0.0448
     12 C8         -4.0422   -6.7928   -0.5944 C.ar      1 <0>        -0.2078
     13 C9         -5.0337   -5.8357   -0.4772 C.ar      1 <0>         0.0318
     14 C10        -4.6963   -4.5172   -0.2057 C.ar      1 <0>         0.0500
     15 N2         -5.7008   -3.5452   -0.0802 N.pl3     1 <0>        -0.2818
     16 C11        -5.7334   -2.3365   -0.6732 C.2       1 <0>         0.2954
     17 N3         -6.8336   -1.7324   -0.3020 N.2       1 <0>        -0.5685
     18 C12        -7.5249   -2.5182    0.5224 C.2       1 <0>         0.1751
     19 N4         -6.8751   -3.6416    0.6842 N.2       1 <0>        -0.3191
     20 Cl1        -6.7002   -6.2849   -0.6632 Cl        1 <0>        -0.0733
     21 H1          1.0073    1.7577    1.1547 H         1 <0>         0.0559
     22 H2         -0.4533    1.8514    0.1417 H         1 <0>         0.0562
     23 H3         -0.6040    1.6706    1.9061 H         1 <0>         0.0565
     24 H4          0.5852   -0.3958    0.0001 H         1 <0>         0.0776
     25 H5          1.6334   -0.4002    2.2473 H         1 <0>         0.0602
     26 H6          0.0221   -0.4873    2.9987 H         1 <0>         0.0617
     27 H7          0.6188   -1.8438    2.0128 H         1 <0>         0.0789
     28 H8         -2.0047   -0.4346    1.6125 H         1 <0>         0.1216
     29 H9         -1.9071   -0.1088   -0.1347 H         1 <0>         0.1220
     30 H10        -1.3292   -4.8549   -0.0701 H         1 <0>         0.1174
     31 H11        -1.9428   -7.1901   -0.5407 H         1 <0>         0.1213
     32 H12        -4.3064   -7.8193   -0.8013 H         1 <0>         0.1245
     33 H13        -4.9828   -1.9355   -1.3382 H         1 <0>         0.2109
     34 H14        -8.4712   -2.2695    0.9795 H         1 <0>         0.2059
@<TRIPOS>BOND
     1    1    2 1
     2    1   21 1
     3    1   22 1
     4    1   23 1
     5    2    3 1
     6    2    4 1
     7    2   24 1
     8    3   25 1
     9    3   26 1
    10    3   27 1
    11    4    5 1
    12    4   28 1
    13    4   29 1
    14    5    6 2
    15    5    7 2
    16    5    8 1
    17    8    9 1
    18    9   14 ar
    19    9   10 ar
    20   10   11 ar
    21   10   30 1
    22   11   12 ar
    23   11   31 1
    24   12   13 ar
    25   12   32 1
    26   13   14 ar
    27   13   20 1
    28   14   15 1
    29   15   19 1
    30   15   16 1
    31   16   17 2
    32   16   33 1
    33   17   18 1
    34   18   19 2
    35   18   34 1
@<TRIPOS>MOLECULE
ZINC36239659
   39    40     0     0     0
SMALL
USER_CHARGES

@<TRIPOS>ATOM
      1 C1         -0.0418    1.5041    0.0051 C.3       1 <0>        -0.1180
      2 C2         -0.0165   -0.0027   -0.0021 C.ar      1 <0>        -0.0752
      3 C3         -0.9900   -0.7046   -0.6913 C.ar      1 <0>        -0.1167
      4 C4         -0.9729   -2.0836   -0.7020 C.ar      1 <0>        -0.0989
      5 C5          0.0299   -2.7717   -0.0152 C.ar      1 <0>        -0.0594
      6 C6          1.0090   -2.0571    0.6781 C.ar      1 <0>        -0.0821
      7 C7          0.9830   -0.6778    0.6757 C.ar      1 <0>        -0.0848
      8 C8          2.0426    0.0953    1.4178 C.3       1 <0>        -0.1170
      9 C9          0.0544   -4.2487   -0.0218 C.2       1 <0>         0.1807
     10 C10         0.1656   -4.8897    1.1501 C.2       1 <0>        -0.2163
     11 S1          0.1903   -6.6561    1.1614 S.3       1 <0>        -0.1009
     12 C11        -0.8220   -7.0745   -0.2901 C.3       1 <0>        -0.1269
     13 C12        -0.4307   -6.1681   -1.4269 C.2       1 <0>         0.5154
     14 O1         -0.4732   -6.6045   -2.5581 O.2       1 <0>        -0.5040
     15 N1         -0.0448   -4.9068   -1.2439 N.am      1 <0>        -0.5375
     16 C13         0.3138   -4.1433   -2.4417 C.3       1 <0>         0.0882
     17 C14         1.7731   -4.4230   -2.8068 C.3       1 <0>        -0.0995
     18 C15         2.1477   -3.6257   -4.0577 C.3       1 <0>        -0.1779
     19 C16         3.5850   -3.9012   -4.4173 C.2       1 <0>         0.4912
     20 O2          4.2483   -4.6645   -3.7362 O.co2     1 <0>        -0.6966
     21 O3          4.0845   -3.3608   -5.3894 O.co2     1 <0>        -0.7071
     22 H1          0.5352    1.8811   -0.8393 H         1 <0>         0.0737
     23 H2         -1.0721    1.8506   -0.0752 H         1 <0>         0.0658
     24 H3          0.3933    1.8703    0.9350 H         1 <0>         0.0693
     25 H4         -1.7651   -0.1713   -1.2216 H         1 <0>         0.1258
     26 H5         -1.7334   -2.6301   -1.2399 H         1 <0>         0.1226
     27 H6          1.7870   -2.5830    1.2115 H         1 <0>         0.1304
     28 H7          1.7151    0.2682    2.4430 H         1 <0>         0.0701
     29 H8          2.9712   -0.4755    1.4244 H         1 <0>         0.0700
     30 H9          2.2078    1.0523    0.9229 H         1 <0>         0.0701
     31 H10         0.2394   -4.3346    2.0736 H         1 <0>         0.1654
     32 H11        -0.6455   -8.1124   -0.5724 H         1 <0>         0.1444
     33 H12        -1.8765   -6.9312   -0.0543 H         1 <0>         0.1189
     34 H13        -0.3310   -4.4407   -3.2687 H         1 <0>         0.0860
     35 H14         0.1859   -3.0787   -2.2459 H         1 <0>         0.0900
     36 H15         2.4179   -4.1257   -1.9798 H         1 <0>         0.0614
     37 H16         1.9010   -5.4876   -3.0026 H         1 <0>         0.0659
     38 H17         1.5028   -3.9231   -4.8847 H         1 <0>         0.0578
     39 H18         2.0197   -2.5611   -3.8619 H         1 <0>         0.0557
@<TRIPOS>BOND
     1    1    2 1
     2    1   22 1
     3    1   23 1
     4    1   24 1
     5    2    7 ar
     6    2    3 ar
     7    3    4 ar
     8    3   25 1
     9    4    5 ar
    10    4   26 1
    11    5    6 ar
    12    5    9 1
    13    6    7 ar
    14    6   27 1
    15    7    8 1
    16    8   28 1
    17    8   29 1
    18    8   30 1
    19    9   15 1
    20    9   10 2
    21   10   11 1
    22   10   31 1
    23   11   12 1
    24   12   13 1
    25   12   32 1
    26   12   33 1
    27   13   14 2
    28   13   15 am
    29   15   16 1
    30   16   17 1
    31   16   34 1
    32   16   35 1
    33   17   18 1
    34   17   36 1
    35   17   37 1
    36   18   19 1
    37   18   38 1
    38   18   39 1
    39   19   20 2
    40   19   21 1
@<TRIPOS>MOLECULE
ZINC38022565
   36    36     0     0     0
SMALL
USER_CHARGES

@<TRIPOS>ATOM
      1 C1         -0.0588    0.1868    0.6169 C.3       1 <0>        -0.1466
      2 C2         -0.0548   -1.3058    0.2804 C.3       1 <0>        -0.0654
      3 C3          0.6622   -1.5240   -1.0270 C.2       1 <0>        -0.1506
      4 C4         -0.0424   -1.5927   -2.2049 C.2       1 <0>        -0.0680
      5 C5          0.7146   -1.7960   -3.3486 C.2       1 <0>        -0.2433
      6 S1          2.3670   -1.8763   -2.6844 S.3       1 <0>         0.2216
      7 C6          2.0119   -1.6499   -1.0581 C.2       1 <0>        -0.2289
      8 C7          2.9733   -1.6005    0.1013 C.3       1 <0>        -0.0692
      9 C8          0.2718   -1.9141   -4.7410 C.2       1 <0>         0.5950
     10 O1         -0.9165   -1.9613   -4.9996 O.2       1 <0>        -0.5246
     11 N1          1.1805   -1.9704   -5.7347 N.am      1 <0>        -0.6038
     12 C9          2.6111   -1.9813   -5.4193 C.3       1 <0>         0.0958
     13 C10         3.0474   -3.4078   -5.0789 C.3       1 <0>        -0.1767
     14 C11         0.7377   -2.0207   -7.1303 C.3       1 <0>         0.1394
     15 C12         0.6076   -0.5972   -7.6757 C.3       1 <0>        -0.1955
     16 C13         0.1521   -0.6489   -9.1113 C.2       1 <0>         0.4961
     17 O2         -0.0498   -1.7247   -9.6484 O.co2     1 <0>        -0.6977
     18 O3         -0.0145    0.3850   -9.7356 O.co2     1 <0>        -0.7026
     19 H1          0.9679    0.5428    0.7017 H         1 <0>         0.0535
     20 H2         -0.5697    0.7361   -0.1738 H         1 <0>         0.0562
     21 H3         -0.5773    0.3446    1.5626 H         1 <0>         0.0553
     22 H4          0.4561   -1.8551    1.0711 H         1 <0>         0.0677
     23 H5         -1.0815   -1.6618    0.1956 H         1 <0>         0.0685
     24 H6         -1.1175   -1.4948   -2.2377 H         1 <0>         0.1451
     25 H7          3.1131   -2.6051    0.5005 H         1 <0>         0.0760
     26 H8          3.9318   -1.2077   -0.2379 H         1 <0>         0.0714
     27 H9          2.5704   -0.9529    0.8801 H         1 <0>         0.0762
     28 H10         3.1758   -1.6244   -6.2806 H         1 <0>         0.0954
     29 H11         2.8000   -1.3302   -4.5659 H         1 <0>         0.0739
     30 H12         2.4827   -3.7647   -4.2176 H         1 <0>         0.0611
     31 H13         2.8585   -4.0589   -5.9324 H         1 <0>         0.0672
     32 H14         4.1118   -3.4159   -4.8443 H         1 <0>         0.0717
     33 H15         1.4674   -2.5718   -7.7234 H         1 <0>         0.0799
     34 H16        -0.2290   -2.5212   -7.1869 H         1 <0>         0.0882
     35 H17        -0.1221   -0.0460   -7.0826 H         1 <0>         0.0610
     36 H18         1.5743   -0.0967   -7.6191 H         1 <0>         0.0569
@<TRIPOS>BOND
     1    1    2 1
     2    1   19 1
     3    1   20 1
     4    1   21 1
     5    2    3 1
     6    2   22 1
     7    2   23 1
     8    3    7 2
     9    3    4 1
    10    4    5 2
    11    4   24 1
    12    5    6 1
    13    5    9 1
    14    6    7 1
    15    7    8 1
    16    8   25 1
    17    8   26 1
    18    8   27 1
    19    9   10 2
    20    9   11 am
    21   11   12 1
    22   11   14 1
    23   12   13 1
    24   12   28 1
    25   12   29 1
    26   13   30 1
    27   13   31 1
    28   13   32 1
    29   14   15 1
    30   14   33 1
    31   14   34 1
    32   15   16 1
    33   15   35 1
    34   15   36 1
    35   16   17 2
    36   16   18 1
@<TRIPOS>MOLECULE
ZINC48518359
   33    33     0     0     0
SMALL
USER_CHARGES

@<TRIPOS>ATOM
      1 C1          1.3040    2.5022   -1.5939 C.2       1 <0>        -0.1866
      2 C2          1.4617    1.2193   -1.3809 C.2       1 <0>        -0.1239
      3 C3          0.3243    0.4025   -0.8239 C.3       1 <0>        -0.1014
      4 S1         -0.2067   -0.8157   -2.0586 S.3       1 <0>        -0.1700
      5 C4         -1.5621   -1.7043   -1.2437 C.3       1 <0>        -0.0590
      6 C5         -2.1013   -2.7602   -2.1739 C.2       1 <0>         0.5033
      7 O1         -3.1209   -3.5506   -1.7786 O.3       1 <0>        -0.7170
      8 N1         -1.5880   -2.9085   -3.3485 N.2       1 <0>        -1.0455
      9 S2         -2.1805   -4.0689   -4.3706 S.o2      1 <0>         2.6353
     10 O2         -1.8776   -5.3247   -3.7786 O.2       1 <0>        -0.9859
     11 O3         -3.5078   -3.6817   -4.6986 O.2       1 <0>        -1.0147
     12 C6         -1.2460   -3.9764   -5.8615 C.2       1 <0>        -0.7012
     13 C7         -0.5177   -5.0127   -6.2526 C.2       1 <0>         0.0224
     14 C8         -0.7733   -6.3526   -5.6833 C.ar      1 <0>        -0.0779
     15 C9         -2.0799   -6.8303   -5.5752 C.ar      1 <0>        -0.0533
     16 C10        -2.3118   -8.0819   -5.0429 C.ar      1 <0>        -0.1169
     17 C11        -1.2523   -8.8626   -4.6164 C.ar      1 <0>        -0.1083
     18 C12         0.0455   -8.3946   -4.7204 C.ar      1 <0>        -0.1309
     19 C13         0.2913   -7.1475   -5.2571 C.ar      1 <0>        -0.0911
     20 H1          2.1191    3.0875   -1.9931 H         1 <0>         0.0990
     21 H2          0.3574    2.9736   -1.3746 H         1 <0>         0.0962
     22 H3          2.4069    0.7470   -1.6044 H         1 <0>         0.1145
     23 H4          0.6550   -0.1139    0.0772 H         1 <0>         0.0818
     24 H5         -0.5101    1.0603   -0.5802 H         1 <0>         0.0763
     25 H6         -1.1917   -2.1765   -0.3338 H         1 <0>         0.0949
     26 H7         -2.3568   -1.0023   -0.9913 H         1 <0>         0.0948
     27 H8         -1.2665   -3.0754   -6.4566 H         1 <0>         0.1544
     28 H9          0.2625   -4.8779   -6.9872 H         1 <0>         0.1265
     29 H10        -2.9079   -6.2215   -5.9072 H         1 <0>         0.1093
     30 H11        -3.3226   -8.4528   -4.9586 H         1 <0>         0.1200
     31 H12        -1.4391   -9.8415   -4.2001 H         1 <0>         0.1169
     32 H13         0.8682   -9.0087   -4.3850 H         1 <0>         0.1181
     33 H14         1.3052   -6.7854   -5.3425 H         1 <0>         0.1197
@<TRIPOS>BOND
     1    1    2 2
     2    1   20 1
     3    1   21 1
     4    2    3 1
     5    2   22 1
     6    3    4 1
     7    3   23 1
     8    3   24 1
     9    4    5 1
    10    5    6 1
    11    5   25 1
    12    5   26 1
    13    6    7 1
    14    6    8 2
    15    8    9 1
    16    9   10 2
    17    9   11 2
    18    9   12 1
    19   12   13 2
    20   12   27 1
    21   13   14 1
    22   13   28 1
    23   14   19 ar
    24   14   15 ar
    25   15   16 ar
    26   15   29 1
    27   16   17 ar
    28   16   30 1
    29   17   18 ar
    30   17   31 1
    31   18   19 ar
    32   18   32 1
    33   19   33 1
@<TRIPOS>MOLECULE
ZINC61179284
   40    41     0     0     0
SMALL
USER_CHARGES

@<TRIPOS>ATOM
      1 C1          0.2964    1.5968   -0.0606 C.3       1 <0>        -0.1701
      2 C2          0.0253    0.0940    0.0345 C.3       1 <0>         0.1041
      3 N1          0.7199   -0.4547    1.2018 N.am      1 <0>        -0.5829
      4 C3         -0.0006   -0.6370    2.4642 C.3       1 <0>         0.1592
      5 H1          0.6752   -1.0528    3.2115 H         1 <0>         0.0994
      6 C4         -1.1738   -1.5951    2.2481 C.3       1 <0>        -0.1597
      7 C5         -0.5287    0.7145    2.9498 C.3       1 <0>        -0.1998
      8 C6          0.6315    1.6179    3.2798 C.2       1 <0>         0.4916
      9 O1          1.7747    1.2179    3.1396 O.co2     1 <0>        -0.6724
     10 O2          0.4269    2.7487    3.6870 O.co2     1 <0>        -0.7158
     11 C7          2.0219   -0.7917    1.1142 C.2       1 <0>         0.5920
     12 O3          2.5806   -1.3114    2.0615 O.2       1 <0>        -0.5240
     13 C8          2.7677   -0.5311   -0.1277 C.2       1 <0>        -0.1394
     14 C9          2.3473   -1.0430   -1.3334 C.2       1 <0>        -0.2325
     15 S1          3.4879   -0.4910   -2.4356 S.3       1 <0>         0.1428
     16 C10         4.5398    0.4219   -1.3453 C.2       1 <0>        -0.1972
     17 C11         3.9699    0.2800   -0.1270 C.2       1 <0>        -0.0554
     18 C12         4.5763    0.9276    1.1089 C.3       1 <0>        -0.0600
     19 C13         6.0300    1.2975    0.8051 C.3       1 <0>        -0.1179
     20 C14         6.1012    2.1163   -0.4869 C.3       1 <0>        -0.1147
     21 C15         5.7809    1.1916   -1.6740 C.3       1 <0>        -0.0304
     22 H2          1.3682    1.7669   -0.1625 H         1 <0>         0.0556
     23 H3         -0.2205    2.0051   -0.9291 H         1 <0>         0.0516
     24 H4         -0.0654    2.0891    0.8421 H         1 <0>         0.0709
     25 H5         -1.0466   -0.0760    0.1364 H         1 <0>         0.0723
     26 H6          0.3870   -0.3982   -0.8682 H         1 <0>         0.0711
     27 H7         -1.8496   -1.1792    1.5008 H         1 <0>         0.0508
     28 H8         -0.7976   -2.5578    1.9021 H         1 <0>         0.0500
     29 H9         -1.7099   -1.7307    3.1874 H         1 <0>         0.0616
     30 H10        -1.1333    1.1711    2.1662 H         1 <0>         0.0578
     31 H11        -1.1393    0.5671    3.8406 H         1 <0>         0.0613
     32 H12         1.4815   -1.6589   -1.5270 H         1 <0>         0.1842
     33 H13         4.0155    1.8271    1.3629 H         1 <0>         0.0870
     34 H14         4.5440    0.2261    1.9425 H         1 <0>         0.0904
     35 H15         6.4336    1.8858    1.6292 H         1 <0>         0.0675
     36 H16         6.6185    0.3873    0.6897 H         1 <0>         0.0604
     37 H17         5.3767    2.9296   -0.4440 H         1 <0>         0.0688
     38 H18         7.1047    2.5249   -0.6052 H         1 <0>         0.0682
     39 H19         6.6064    0.5012   -1.8475 H         1 <0>         0.0784
     40 H20         5.6132    1.7961   -2.5653 H         1 <0>         0.0753
@<TRIPOS>BOND
     1    1    2 1
     2    1   22 1
     3    1   23 1
     4    1   24 1
     5    2    3 1
     6    2   25 1
     7    2   26 1
     8    3    4 1
     9    3   11 am
    10    4    5 1
    11    4    6 1
    12    4    7 1
    13    6   27 1
    14    6   28 1
    15    6   29 1
    16    7    8 1
    17    7   30 1
    18    7   31 1
    19    8    9 2
    20    8   10 1
    21   11   12 2
    22   11   13 1
    23   13   17 1
    24   13   14 2
    25   14   15 1
    26   14   32 1
    27   15   16 1
    28   16   21 1
    29   16   17 2
    30   17   18 1
    31   18   19 1
    32   18   33 1
    33   18   34 1
    34   19   20 1
    35   19   35 1
    36   19   36 1
    37   20   21 1
    38   20   37 1
    39   20   38 1
    40   21   39 1
    41   21   40 1
@<TRIPOS>MOLECULE
ZINC63132162
   33    33     0     0     0
SMALL
USER_CHARGES

@<TRIPOS>ATOM
      1 C1         -3.5632   -0.8656   -1.1987 C.3       1 <0>        -0.1530
      2 C2         -2.3244    0.0254   -1.0878 C.3       1 <0>        -0.1406
      3 C3         -1.4845   -0.4160    0.1125 C.3       1 <0>        -0.0536
      4 H1         -1.2952   -1.4876    0.0490 H         1 <0>         0.1207
      5 C4         -0.1533    0.3382    0.1085 C.3       1 <0>        -0.2115
      6 C5          0.7410   -0.2156    1.1876 C.2       1 <0>         0.4926
      7 O1          0.3500   -1.1289    1.8944 O.co2     1 <0>        -0.6809
      8 O2          1.8557    0.2496    1.3539 O.co2     1 <0>        -0.7015
      9 S1         -2.3821   -0.0503    1.6458 S.3       1 <0>        -0.0435
     10 C6         -2.4885    1.7083    1.6684 C.ar      1 <0>        -0.0203
     11 C7         -2.0429    2.4471    0.5789 C.ar      1 <0>        -0.1800
     12 C8         -2.1278    3.8252    0.6001 C.ar      1 <0>        -0.0028
     13 C9         -2.6556    4.4702    1.7038 C.ar      1 <0>        -0.6845
     14 C10        -3.0997    3.7383    2.7900 C.ar      1 <0>        -0.0052
     15 C11        -3.0236    2.3597    2.7733 C.ar      1 <0>        -0.1336
     16 S2         -2.7620    6.2289    1.7263 S.o2      1 <0>         2.5047
     17 O3         -2.7348    6.5761    3.1040 O.2       1 <0>        -0.9432
     18 O4         -1.7333    6.6656    0.8487 O.2       1 <0>        -0.9419
     19 C12        -4.3891    6.6066    1.0188 C.3       1 <0>        -0.6530
     20 H2         -4.2044   -0.4982   -2.0000 H         1 <0>         0.0521
     21 H3         -3.2567   -1.8882   -1.4185 H         1 <0>         0.0541
     22 H4         -4.1111   -0.8450   -0.2567 H         1 <0>         0.0652
     23 H5         -1.7312   -0.0620   -1.9981 H         1 <0>         0.0731
     24 H6         -2.6332    1.0621   -0.9535 H         1 <0>         0.0754
     25 H7          0.3298    0.2175   -0.8611 H         1 <0>         0.0716
     26 H8         -0.3349    1.3967    0.2948 H         1 <0>         0.0799
     27 H9         -1.6302    1.9441   -0.2831 H         1 <0>         0.1578
     28 H10        -1.7813    4.4000   -0.2460 H         1 <0>         0.1393
     29 H11        -3.5110    4.2454    3.6503 H         1 <0>         0.1408
     30 H12        -3.3754    1.7885    3.6197 H         1 <0>         0.1344
     31 H13        -5.1664    6.1477    1.6298 H         1 <0>         0.1297
     32 H14        -4.5341    7.6867    0.9973 H         1 <0>         0.1278
     33 H15        -4.4445    6.2123    0.0041 H         1 <0>         0.1297
@<TRIPOS>BOND
     1    1    2 1
     2    1   20 1
     3    1   21 1
     4    1   22 1
     5    2    3 1
     6    2   23 1
     7    2   24 1
     8    3    4 1
     9    3    5 1
    10    3    9 1
    11    5    6 1
    12    5   25 1
    13    5   26 1
    14    6    7 2
    15    6    8 1
    16    9   10 1
    17   10   15 ar
    18   10   11 ar
    19   11   12 ar
    20   11   27 1
    21   12   13 ar
    22   12   28 1
    23   13   14 ar
    24   13   16 1
    25   14   15 ar
    26   14   29 1
    27   15   30 1
    28   16   17 2
    29   16   18 2
    30   16   19 1
    31   19   31 1
    32   19   32 1
    33   19   33 1
@<TRIPOS>MOLECULE
ZINC06275961
   41    43     0     0     0
SMALL
USER_CHARGES
5-(3,4-dimethylphenyl)amino-3-(p-tolyl)thiazolidine-2,4-dione
@<TRIPOS>ATOM
      1 C1         -0.4240   -0.0861   -0.0414 C.3       1 <0>        -0.1198
      2 C2         -0.3720    1.4199   -0.0207 C.ar      1 <0>        -0.0657
      3 C3         -0.9049    2.1141    1.0499 C.ar      1 <0>        -0.1093
      4 C4         -0.8536    3.4941    1.0743 C.ar      1 <0>        -0.0856
      5 C5         -0.2765    4.1847    0.0172 C.ar      1 <0>         0.0810
      6 C6          0.2526    3.4852   -1.0589 C.ar      1 <0>        -0.0897
      7 C7          0.2035    2.1049   -1.0750 C.ar      1 <0>        -0.1092
      8 N1         -0.2285    5.5856    0.0362 N.am      1 <0>        -0.5325
      9 C8         -1.3651    6.2540   -0.0648 C.2       1 <0>         0.5094
     10 O1         -2.4367    5.6973   -0.1730 O.2       1 <0>        -0.4302
     11 C9         -1.2353    7.7702   -0.0363 C.3       1 <0>         0.1826
     12 H1         -1.7541    8.1964    0.8223 H         1 <0>         0.1752
     13 S1          0.5869    7.9267    0.1387 S.3       1 <0>        -0.1905
     14 C10         0.9716    6.1820    0.1618 C.2       1 <0>         0.5692
     15 O2          2.0629    5.6563    0.2648 O.2       1 <0>        -0.4015
     16 N2         -1.7036    8.3687   -1.2888 N.pl3     1 <0>        -0.6945
     17 C11        -2.4991    9.5164   -1.2597 C.ar      1 <0>         0.1949
     18 C12        -2.7202   10.1801   -0.0593 C.ar      1 <0>        -0.1861
     19 C13        -3.5036   11.3169   -0.0349 C.ar      1 <0>        -0.0696
     20 C14        -4.0761   11.7893   -1.2019 C.ar      1 <0>        -0.1260
     21 C15        -3.8621   11.1286   -2.3974 C.ar      1 <0>        -0.0409
     22 C16        -3.0756    9.9935   -2.4298 C.ar      1 <0>        -0.1683
     23 C17        -4.4880   11.6470   -3.6665 C.3       1 <0>        -0.1212
     24 C18        -4.9356   13.0268   -1.1703 C.3       1 <0>        -0.1141
     25 H2          0.4750   -0.4872    0.4266 H         1 <0>         0.0769
     26 H3         -1.3021   -0.4269    0.5073 H         1 <0>         0.0713
     27 H4         -0.4827   -0.4335   -1.0729 H         1 <0>         0.0711
     28 H5         -1.3581    1.5765    1.8696 H         1 <0>         0.1346
     29 H6         -1.2660    4.0357    1.9127 H         1 <0>         0.1274
     30 H7          0.7019    4.0197   -1.8828 H         1 <0>         0.1269
     31 H8          0.6153    1.5602   -1.9117 H         1 <0>         0.1345
     32 H9         -1.4613    7.9679   -2.1382 H         1 <0>         0.4124
     33 H10        -2.2770    9.8092    0.8531 H         1 <0>         0.1211
     34 H11        -3.6730   11.8353    0.8973 H         1 <0>         0.1263
     35 H12        -2.9088    9.4779   -3.3639 H         1 <0>         0.1246
     36 H13        -5.4693   11.1916   -3.7999 H         1 <0>         0.0739
     37 H14        -4.5955   12.7298   -3.6025 H         1 <0>         0.0738
     38 H15        -3.8519   11.3945   -4.5148 H         1 <0>         0.0667
     39 H16        -5.9728   12.7443   -0.9902 H         1 <0>         0.0680
     40 H17        -4.5946   13.6857   -0.3717 H         1 <0>         0.0641
     41 H18        -4.8610   13.5455   -2.1260 H         1 <0>         0.0688
@<TRIPOS>BOND
     1    1    2 1
     2    1   25 1
     3    1   26 1
     4    1   27 1
     5    2    7 ar
     6    2    3 ar
     7    3    4 ar
     8    3   28 1
     9    4    5 ar
    10    4   29 1
    11    5    6 ar
    12    5    8 1
    13    6    7 ar
    14    6   30 1
    15    7   31 1
    16    8   14 am
    17    8    9 am
    18    9   10 2
    19    9   11 1
    20   11   12 1
    21   11   13 1
    22   11   16 1
    23   13   14 1
    24   14   15 2
    25   16   17 1
    26   16   32 1
    27   17   22 ar
    28   17   18 ar
    29   18   19 ar
    30   18   33 1
    31   19   20 ar
    32   19   34 1
    33   20   21 ar
    34   20   24 1
    35   21   22 ar
    36   21   23 1
    37   22   35 1
    38   23   36 1
    39   23   37 1
    40   23   38 1
    41   24   39 1
    42   24   40 1
    43   24   41 1
@<TRIPOS>MOLECULE
ZINC22890671
   42    44     0     0     0
SMALL
USER_CHARGES
4-chloro-N-[3,5-dimethyl-1-(p-tolyl)pyrazol-4-yl]benzamide
@<TRIPOS>ATOM
      1 C1          5.2207    3.9928    3.0775 C.3       1 <0>        -0.1194
      2 C2          3.7948    3.5458    2.8822 C.ar      1 <0>        -0.0853
      3 C3          2.9602    3.4041    3.9756 C.ar      1 <0>        -0.1000
      4 C4          1.6529    2.9946    3.7998 C.ar      1 <0>        -0.1047
      5 C5          1.1772    2.7247    2.5236 C.ar      1 <0>         0.1495
      6 C6          2.0194    2.8619    1.4284 C.ar      1 <0>        -0.1298
      7 C7          3.3239    3.2777    1.6100 C.ar      1 <0>        -0.0997
      8 N1         -0.1489    2.3090    2.3419 N.pl3     1 <0>        -0.3208
      9 C8         -0.9506    2.6253    1.2887 C.2       1 <0>         0.0956
     10 C9         -2.1530    2.0299    1.4967 C.2       1 <0>        -0.0015
     11 C10        -2.0793    1.3235    2.7070 C.2       1 <0>         0.0986
     12 N2         -0.8841    1.4936    3.2118 N.2       1 <0>        -0.2787
     13 C11        -3.1894    0.5114    3.3229 C.3       1 <0>        -0.0775
     14 N3         -3.2727    2.1058    0.6485 N.am      1 <0>        -0.6565
     15 C12        -4.3455    2.8360    1.0123 C.2       1 <0>         0.5636
     16 O1         -4.3146    3.4943    2.0341 O.2       1 <0>        -0.5195
     17 C13        -5.5592    2.8365    0.1695 C.ar      1 <0>        -0.1279
     18 C14        -5.5956    2.0860   -1.0073 C.ar      1 <0>        -0.0734
     19 C15        -6.7330    2.0863   -1.7870 C.ar      1 <0>        -0.1170
     20 C16        -7.8339    2.8378   -1.4104 C.ar      1 <0>        -0.0113
     21 C17        -7.8017    3.5888   -0.2470 C.ar      1 <0>        -0.1162
     22 C18        -6.6721    3.5919    0.5439 C.ar      1 <0>        -0.0463
     23 Cl1        -9.2600    2.8380   -2.4003 Cl        1 <0>        -0.0586
     24 C19        -0.5744    3.4851    0.1096 C.3       1 <0>        -0.0984
     25 H1          5.4102    4.1565    4.1486 H         1 <0>         0.0685
     26 H2          5.3895    4.9305    2.5278 H         1 <0>         0.0733
     27 H3          5.9031    3.2177    2.6986 H         1 <0>         0.0734
     28 H4          3.3309    3.6142    4.9680 H         1 <0>         0.1331
     29 H5          1.0015    2.8841    4.6541 H         1 <0>         0.1340
     30 H6          1.6534    2.6484    0.4349 H         1 <0>         0.1338
     31 H7          3.9782    3.3893    0.7580 H         1 <0>         0.1336
     32 H8         -2.8412    0.0733    4.2699 H         1 <0>         0.0771
     33 H9         -3.4817   -0.2932    2.6322 H         1 <0>         0.0800
     34 H10        -4.0555    1.1615    3.5162 H         1 <0>         0.0825
     35 H11        -3.2727    1.5692   -0.3117 H         1 <0>         0.4244
     36 H12        -4.7363    1.5030   -1.3041 H         1 <0>         0.1366
     37 H13        -6.7641    1.5025   -2.6950 H         1 <0>         0.1419
     38 H14        -8.6632    4.1727    0.0415 H         1 <0>         0.1426
     39 H15        -6.6484    4.1773    1.4512 H         1 <0>         0.1467
     40 H16        -1.4300    3.5595   -0.5777 H         1 <0>         0.0876
     41 H17         0.2799    3.0333   -0.4159 H         1 <0>         0.0828
     42 H18        -0.2985    4.4900    0.4618 H         1 <0>         0.0832
@<TRIPOS>BOND
     1    1    2 1
     2    1   25 1
     3    1   26 1
     4    1   27 1
     5    2    7 ar
     6    2    3 ar
     7    3    4 ar
     8    3   28 1
     9    4    5 ar
    10    4   29 1
    11    5    6 ar
    12    5    8 1
    13    6    7 ar
    14    6   30 1
    15    7   31 1
    16    8   12 1
    17    8    9 1
    18    9   10 2
    19    9   24 1
    20   10   11 1
    21   10   14 1
    22   11   12 2
    23   11   13 1
    24   13   32 1
    25   13   33 1
    26   13   34 1
    27   14   15 am
    28   14   35 1
    29   15   16 2
    30   15   17 1
    31   17   22 ar
    32   17   18 ar
    33   18   19 ar
    34   18   36 1
    35   19   20 ar
    36   19   37 1
    37   20   21 ar
    38   20   23 1
    39   21   22 ar
    40   21   38 1
    41   22   39 1
    42   24   40 1
    43   24   41 1
    44   24   42 1
@<TRIPOS>MOLECULE
ZINC42315723
   35    37     0     0     0
SMALL
USER_CHARGES

@<TRIPOS>ATOM
      1 C1         -0.0184    1.5028    0.0103 C.3       1 <0>        -0.1179
      2 C2          0.0021   -0.0041    0.0020 C.2       1 <0>         0.0285
      3 C3          0.0057   -0.6827   -1.1816 C.2       1 <0>        -0.1815
      4 C4          0.0248   -2.0874   -1.1721 C.2       1 <0>         0.3273
      5 N1          0.0331   -2.9983   -2.1401 N.2       1 <0>        -0.5563
      6 C5          0.0523   -4.2133   -1.6090 C.2       1 <0>         0.2473
      7 N2          0.0569   -4.1230   -0.3006 N.2       1 <0>        -0.3594
      8 N3          0.0395   -2.7582    0.0190 N.pl3     1 <0>        -0.3253
      9 C6          0.0354   -2.0758    1.1988 C.2       1 <0>         0.4516
     10 C7          0.0231   -0.7124    1.2069 C.2       1 <0>        -0.2667
     11 N4          0.0504   -2.7705    2.3950 N.pl3     1 <0>        -0.7215
     12 C8          0.0460   -2.0412    3.6656 C.3       1 <0>         0.1926
     13 H1         -0.5564   -1.1385    3.5644 H         1 <0>         0.1016
     14 C9          1.4796   -1.6585    4.0388 C.3       1 <0>        -0.1685
     15 C10        -0.5375   -2.9162    4.7449 C.ar      1 <0>        -0.0825
     16 C11        -0.2211   -4.2611    4.7905 C.ar      1 <0>        -0.1056
     17 C12        -0.7557   -5.0639    5.7805 C.ar      1 <0>        -0.0844
     18 C13        -1.6074   -4.5214    6.7258 C.ar      1 <0>        -0.0868
     19 C14        -1.9237   -3.1755    6.6799 C.ar      1 <0>        -0.0854
     20 C15        -1.3845   -2.3725    5.6926 C.ar      1 <0>        -0.0985
     21 Br1        -2.3396   -5.6193    8.0802 Br        1 <0>        -0.0432
     22 H2          1.0042    1.8801    0.0026 H         1 <0>         0.0833
     23 H3         -0.5455    1.8639   -0.8728 H         1 <0>         0.0773
     24 H4         -0.5286    1.8543    0.9071 H         1 <0>         0.0751
     25 H5         -0.0063   -0.1446   -2.1179 H         1 <0>         0.1529
     26 H6          0.0622   -5.1368   -2.1688 H         1 <0>         0.2247
     27 H7          0.0252   -0.1789    2.1459 H         1 <0>         0.1558
     28 H8          0.0638   -3.7404    2.3925 H         1 <0>         0.4121
     29 H9          1.9016   -1.0256    3.2582 H         1 <0>         0.0708
     30 H10         1.4763   -1.1159    4.9842 H         1 <0>         0.0765
     31 H11         2.0820   -2.5612    4.1401 H         1 <0>         0.0649
     32 H12         0.4436   -4.6847    4.0521 H         1 <0>         0.1294
     33 H13        -0.5088   -6.1147    5.8158 H         1 <0>         0.1366
     34 H14        -2.5886   -2.7515    7.4178 H         1 <0>         0.1381
     35 H15        -1.6281   -1.3208    5.6591 H         1 <0>         0.1372
@<TRIPOS>BOND
     1    1    2 1
     2    1   22 1
     3    1   23 1
     4    1   24 1
     5    2   10 1
     6    2    3 2
     7    3    4 1
     8    3   25 1
     9    4    8 1
    10    4    5 2
    11    5    6 1
    12    6    7 2
    13    6   26 1
    14    7    8 1
    15    8    9 1
    16    9   10 2
    17    9   11 1
    18   10   27 1
    19   11   12 1
    20   11   28 1
    21   12   13 1
    22   12   14 1
    23   12   15 1
    24   14   29 1
    25   14   30 1
    26   14   31 1
    27   15   20 ar
    28   15   16 ar
    29   16   17 ar
    30   16   32 1
    31   17   18 ar
    32   17   33 1
    33   18   19 ar
    34   18   21 1
    35   19   20 ar
    36   19   34 1
    37   20   35 1
@<TRIPOS>MOLECULE
ZINC08264344
   49    51     0     0     0
SMALL
USER_CHARGES

@<TRIPOS>ATOM
      1 C1          0.0098    1.5072    0.0379 C.3       1 <0>        -0.1137
      2 C2          0.0260    0.0003    0.0275 C.ar      1 <0>        -0.1104
      3 C3          0.0394   -0.6979    1.2213 C.ar      1 <0>        -0.0889
      4 C4          0.0543   -2.0787    1.2152 C.ar      1 <0>        -0.1573
      5 C5          0.0552   -2.7664    0.0084 C.ar      1 <0>         0.1636
      6 C6          0.0412   -2.0625   -1.1884 C.ar      1 <0>        -0.1504
      7 C7          0.0216   -0.6813   -1.1754 C.ar      1 <0>        -0.0600
      8 C8          0.0006    0.0834   -2.4738 C.3       1 <0>        -0.1163
      9 N1          0.0707   -4.1655   -0.0013 N.am      1 <0>        -0.5518
     10 C9         -0.0336   -4.9864   -1.2133 C.3       1 <0>         0.1093
     11 C10         0.4591   -6.3919   -0.8029 C.3       1 <0>        -0.1248
     12 H1         -0.1140   -7.1692   -1.3083 H         1 <0>         0.1362
     13 C11         0.1745   -6.3943    0.7170 C.3       1 <0>        -0.1436
     14 C12         0.1888   -4.9303    1.0978 C.2       1 <0>         0.5151
     15 O1          0.2895   -4.5081    2.2304 O.2       1 <0>        -0.5034
     16 C13         1.9328   -6.5480   -1.0766 C.2       1 <0>         0.5187
     17 O2          2.5607   -5.6292   -1.5588 O.2       1 <0>        -0.5032
     18 N2          2.5530   -7.7087   -0.7857 N.am      1 <0>        -0.6704
     19 C14         3.9403   -7.8167   -0.9329 C.ar      1 <0>         0.1496
     20 C15         4.5043   -9.0145   -1.3522 C.ar      1 <0>        -0.1500
     21 C16         5.8740   -9.1179   -1.4966 C.ar      1 <0>        -0.0628
     22 C17         6.6835   -8.0304   -1.2241 C.ar      1 <0>        -0.1334
     23 C18         6.1250   -6.8365   -0.8059 C.ar      1 <0>        -0.0615
     24 C19         4.7555   -6.7248   -0.6656 C.ar      1 <0>        -0.1248
     25 C20         7.0110   -5.6540   -0.5096 C.3       1 <0>        -0.1159
     26 C21         6.4869  -10.4174   -1.9511 C.3       1 <0>        -0.1151
     27 H2         -1.0217    1.8593    0.0505 H         1 <0>         0.0689
     28 H3          0.5284    1.8700    0.9253 H         1 <0>         0.0654
     29 H4          0.5109    1.8821   -0.8545 H         1 <0>         0.0676
     30 H5          0.0386   -0.1626    2.1593 H         1 <0>         0.1263
     31 H6          0.0655   -2.6234    2.1477 H         1 <0>         0.1532
     32 H7          0.0420   -2.5943   -2.1284 H         1 <0>         0.1250
     33 H8          1.0231    0.2789   -2.7969 H         1 <0>         0.0722
     34 H9         -0.5144   -0.5046   -3.2335 H         1 <0>         0.0662
     35 H10        -0.5221    1.0290   -2.3301 H         1 <0>         0.0709
     36 H11        -1.0694   -5.0331   -1.5493 H         1 <0>         0.0948
     37 H12         0.6011   -4.5793   -2.0005 H         1 <0>         0.1060
     38 H13        -0.8007   -6.8362    0.9218 H         1 <0>         0.1272
     39 H14         0.9578   -6.9322    1.2509 H         1 <0>         0.1117
     40 H15         2.0376   -8.4691   -0.4741 H         1 <0>         0.4127
     41 H16         3.8726   -9.8643   -1.5649 H         1 <0>         0.1254
     42 H17         7.7542   -8.1138   -1.3377 H         1 <0>         0.1240
     43 H18         4.3195   -5.7905   -0.3439 H         1 <0>         0.1301
     44 H19         7.1446   -5.0638   -1.4162 H         1 <0>         0.0733
     45 H20         6.5480   -5.0372    0.2607 H         1 <0>         0.0667
     46 H21         7.9812   -6.0059   -0.1588 H         1 <0>         0.0689
     47 H22         6.5546  -10.4264   -3.0390 H         1 <0>         0.0724
     48 H23         7.4848  -10.5174   -1.5241 H         1 <0>         0.0688
     49 H24         5.8647  -11.2484   -1.6189 H         1 <0>         0.0672
@<TRIPOS>BOND
     1    1    2 1
     2    1   27 1
     3    1   28 1
     4    1   29 1
     5    2    7 ar
     6    2    3 ar
     7    3    4 ar
     8    3   30 1
     9    4    5 ar
    10    4   31 1
    11    5    6 ar
    12    5    9 1
    13    6    7 ar
    14    6   32 1
    15    7    8 1
    16    8   33 1
    17    8   34 1
    18    8   35 1
    19    9   14 am
    20    9   10 1
    21   10   11 1
    22   10   36 1
    23   10   37 1
    24   11   12 1
    25   11   13 1
    26   11   16 1
    27   13   14 1
    28   13   38 1
    29   13   39 1
    30   14   15 2
    31   16   17 2
    32   16   18 am
    33   18   19 1
    34   18   40 1
    35   19   24 ar
    36   19   20 ar
    37   20   21 ar
    38   20   41 1
    39   21   22 ar
    40   21   26 1
    41   22   23 ar
    42   22   42 1
    43   23   24 ar
    44   23   25 1
    45   24   43 1
    46   25   44 1
    47   25   45 1
    48   25   46 1
    49   26   47 1
    50   26   48 1
    51   26   49 1
@<TRIPOS>MOLECULE
ZINC62275682
   37    38     0     0     0
SMALL
USER_CHARGES

@<TRIPOS>ATOM
      1 C1          1.6214   -2.3505    2.2117 C.3       1 <0>        -0.1161
      2 C2          0.7944   -1.8490    1.0561 C.ar      1 <0>        -0.0568
      3 C3          0.7934   -2.5375   -0.1415 C.ar      1 <0>        -0.1077
      4 C4          0.0309   -2.0754   -1.2062 C.ar      1 <0>         0.1554
      5 C5         -0.7290   -0.9216   -1.0633 C.ar      1 <0>        -0.1233
      6 C6         -0.7239   -0.2373    0.1371 C.ar      1 <0>        -0.0661
      7 C7          0.0332   -0.7037    1.1976 C.ar      1 <0>        -0.1051
      8 Br1        -1.7579    1.3338    0.3333 Br        1 <0>        -0.0420
      9 N1          0.0284   -2.7702   -2.4200 N.am      1 <0>        -0.6637
     10 C8          0.1488   -4.1126   -2.4284 C.2       1 <0>         0.5996
     11 O1          0.1630   -4.7283   -1.3797 O.2       1 <0>        -0.4975
     12 C9          0.2632   -4.8342   -3.7082 C.2       1 <0>        -0.3111
     13 C10         1.5009   -5.1625   -4.4174 C.2       1 <0>         0.1427
     14 N2          1.1648   -5.7998   -5.4999 N.2       1 <0>        -0.3035
     15 O2         -0.2439   -5.9102   -5.5423 O.3       1 <0>        -0.0689
     16 C11        -0.7649   -5.3305   -4.4578 C.2       1 <0>         0.1391
     17 C12        -2.2310   -5.2371   -4.1218 C.3       1 <0>        -0.0328
     18 C13        -2.9612   -4.4784   -5.2318 C.3       1 <0>        -0.1506
     19 C14        -2.8162   -6.6451   -3.9962 C.3       1 <0>        -0.1510
     20 C15         2.9018   -4.8253   -3.9759 C.3       1 <0>        -0.0905
     21 H1          1.0269   -3.0389    2.8123 H         1 <0>         0.0775
     22 H2          2.5019   -2.8680    1.8308 H         1 <0>         0.0713
     23 H3          1.9337   -1.5074    2.8279 H         1 <0>         0.0721
     24 H4          1.3855   -3.4342   -0.2499 H         1 <0>         0.1413
     25 H5         -1.3228   -0.5595   -1.8896 H         1 <0>         0.1366
     26 H6          0.0325   -0.1697    2.1363 H         1 <0>         0.1358
     27 H7         -0.0600   -2.2860   -3.2559 H         1 <0>         0.4153
     28 H8         -2.3543   -4.7068   -3.1775 H         1 <0>         0.1031
     29 H9         -2.8379   -5.0087   -6.1762 H         1 <0>         0.0697
     30 H10        -4.0216   -4.4109   -4.9888 H         1 <0>         0.0771
     31 H11        -2.5443   -3.4753   -5.3213 H         1 <0>         0.0621
     32 H12        -3.8766   -6.5776   -3.7532 H         1 <0>         0.0769
     33 H13        -2.6929   -7.1754   -4.9406 H         1 <0>         0.0690
     34 H14        -2.2959   -7.1856   -3.2055 H         1 <0>         0.0647
     35 H15         3.2941   -5.6356   -3.3614 H         1 <0>         0.0981
     36 H16         3.5369   -4.6932   -4.8518 H         1 <0>         0.0920
     37 H17         2.8875   -3.9030   -3.3950 H         1 <0>         0.0871
@<TRIPOS>BOND
     1    1    2 1
     2    1   21 1
     3    1   22 1
     4    1   23 1
     5    2    7 ar
     6    2    3 ar
     7    3    4 ar
     8    3   24 1
     9    4    5 ar
    10    4    9 1
    11    5    6 ar
    12    5   25 1
    13    6    7 ar
    14    6    8 1
    15    7   26 1
    16    9   10 am
    17    9   27 1
    18   10   11 2
    19   10   12 1
    20   12   16 2
    21   12   13 1
    22   13   14 2
    23   13   20 1
    24   14   15 1
    25   15   16 1
    26   16   17 1
    27   17   18 1
    28   17   19 1
    29   17   28 1
    30   18   29 1
    31   18   30 1
    32   18   31 1
    33   19   32 1
    34   19   33 1
    35   19   34 1
    36   20   35 1
    37   20   36 1
    38   20   37 1
@<TRIPOS>MOLECULE
ZINC65423846
   50    51     0     0     0
SMALL
USER_CHARGES

@<TRIPOS>ATOM
      1 C1         -0.0168    1.5028    0.0092 C.3       1 <0>        -0.1175
      2 C2          0.0024   -0.0041    0.0012 C.ar      1 <0>        -0.0610
      3 C3          1.1386   -0.6774   -0.4091 C.ar      1 <0>        -0.1135
      4 C4          1.1598   -2.0583   -0.4183 C.ar      1 <0>        -0.0592
      5 C5          0.0389   -2.7714   -0.0146 C.ar      1 <0>         0.1344
      6 C6         -1.1013   -2.0924    0.3977 C.ar      1 <0>        -0.0169
      7 C7         -1.1140   -0.7103    0.4093 C.ar      1 <0>        -0.1149
      8 Cl1        -2.5056   -2.9789    0.9035 Cl        1 <0>        -0.0573
      9 N1          0.0572   -4.1710   -0.0232 N.am      1 <0>        -0.6839
     10 C8          0.4707   -4.8463    1.0674 C.2       1 <0>         0.5284
     11 O1          0.7407   -4.2460    2.0861 O.2       1 <0>        -0.4994
     12 C9          0.5976   -6.3472    1.0211 C.3       1 <0>         0.0664
     13 C10         1.6049   -6.7407   -0.0612 C.3       1 <0>        -0.1869
     14 N2          1.0622   -6.8398    2.3248 N.3       1 <0>        -0.5103
     15 C11         2.3861   -6.2917    2.6537 C.3       1 <0>         0.0112
     16 C12         2.8046   -6.7817    4.0425 C.3       1 <0>         0.0902
     17 O2          2.7905   -8.2117    4.0622 O.3       1 <0>        -0.3747
     18 C13         1.5162   -8.7792    3.7469 C.3       1 <0>         0.1176
     19 C14         1.0847   -8.3095    2.3551 C.3       1 <0>         0.0289
     20 C15         0.4847   -8.3257    4.7818 C.3       1 <0>        -0.1702
     21 C16         1.6191  -10.3057    3.7618 C.3       1 <0>        -0.1385
     22 C17         4.2154   -6.2803    4.3574 C.3       1 <0>        -0.1438
     23 C18         2.3983   -2.7906   -0.8666 C.3       1 <0>        -0.1127
     24 H1          0.3318    1.8654    0.9762 H         1 <0>         0.0769
     25 H2          0.6376    1.8787   -0.7772 H         1 <0>         0.0719
     26 H3         -1.0337    1.8541   -0.1654 H         1 <0>         0.0712
     27 H4          2.0103   -0.1225   -0.7231 H         1 <0>         0.1333
     28 H5         -1.9980   -0.1815    0.7337 H         1 <0>         0.1370
     29 H6         -0.2277   -4.6549   -0.8141 H         1 <0>         0.4082
     30 H7         -0.3729   -6.7870    0.7914 H         1 <0>         0.1119
     31 H8          2.5754   -6.3010    0.1685 H         1 <0>         0.0673
     32 H9          1.6967   -7.8264   -0.0947 H         1 <0>         0.0733
     33 H10         1.2602   -6.3753   -1.0285 H         1 <0>         0.0694
     34 H11         3.1132   -6.6282    1.9146 H         1 <0>         0.0404
     35 H12         2.3402   -5.2027    2.6505 H         1 <0>         0.1101
     36 H13         2.1072   -6.4005    4.7884 H         1 <0>         0.0702
     37 H14         0.0887   -8.6933    2.1340 H         1 <0>         0.0855
     38 H15         1.7910   -8.6782    1.6113 H         1 <0>         0.0477
     39 H16         0.4110   -7.2382    4.7689 H         1 <0>         0.0726
     40 H17        -0.4862   -8.7585    4.5410 H         1 <0>         0.0632
     41 H18         0.7945   -8.6571    5.7730 H         1 <0>         0.0585
     42 H19         1.9301  -10.6393    4.7518 H         1 <0>         0.0678
     43 H20         0.6476  -10.7377    3.5214 H         1 <0>         0.0719
     44 H21         2.3528  -10.6277    3.0228 H         1 <0>         0.0619
     45 H22         4.2264   -5.1906    4.3384 H         1 <0>         0.0722
     46 H23         4.5128   -6.6295    5.3462 H         1 <0>         0.0661
     47 H24         4.9121   -6.6638    3.6120 H         1 <0>         0.0605
     48 H25         3.0461   -2.9682   -0.0082 H         1 <0>         0.0741
     49 H26         2.1153   -3.7444   -1.3118 H         1 <0>         0.0676
     50 H27         2.9293   -2.1887   -1.6042 H         1 <0>         0.0729
@<TRIPOS>BOND
     1    1    2 1
     2    1   24 1
     3    1   25 1
     4    1   26 1
     5    2    7 ar
     6    2    3 ar
     7    3    4 ar
     8    3   27 1
     9    4    5 ar
    10    4   23 1
    11    5    6 ar
    12    5    9 1
    13    6    7 ar
    14    6    8 1
    15    7   28 1
    16    9   10 am
    17    9   29 1
    18   10   11 2
    19   10   12 1
    20   12   13 1
    21   12   14 1
    22   12   30 1
    23   13   31 1
    24   13   32 1
    25   13   33 1
    26   14   19 1
    27   14   15 1
    28   15   16 1
    29   15   34 1
    30   15   35 1
    31   16   17 1
    32   16   22 1
    33   16   36 1
    34   17   18 1
    35   18   19 1
    36   18   20 1
    37   18   21 1
    38   19   37 1
    39   19   38 1
    40   20   39 1
    41   20   40 1
    42   20   41 1
    43   21   42 1
    44   21   43 1
    45   21   44 1
    46   22   45 1
    47   22   46 1
    48   22   47 1
    49   23   48 1
    50   23   49 1
    51   23   50 1
@<TRIPOS>MOLECULE
ZINC25262842
   31    31     0     0     0
SMALL
USER_CHARGES
(2S)-N-[4-bromo-3-(trifluoromethyl)phenyl]-2-ureido-propanamide
@<TRIPOS>ATOM
      1 C1         -1.6076    2.1357    1.3635 C.3       1 <0>        -0.1619
      2 C2         -1.3148    2.0094   -0.1329 C.3       1 <0>         0.1516
      3 H1         -2.1257    1.4759   -0.6505 H         1 <0>         0.1190
      4 C3         -1.1452    3.3830   -0.7292 C.2       1 <0>         0.5192
      5 O1         -0.0996    3.6874   -1.2633 O.2       1 <0>        -0.5146
      6 N1         -2.1553    4.2733   -0.6691 N.am      1 <0>        -0.6817
      7 C4         -1.9617    5.5830   -1.1229 C.ar      1 <0>         0.1706
      8 C5         -0.7216    6.1922   -0.9814 C.ar      1 <0>        -0.0879
      9 C6         -0.5319    7.4826   -1.4348 C.ar      1 <0>        -0.0676
     10 C7         -1.5791    8.1728   -2.0197 C.ar      1 <0>        -0.0689
     11 C8         -2.8170    7.5705   -2.1567 C.ar      1 <0>        -0.1369
     12 C9         -3.0106    6.2778   -1.7101 C.ar      1 <0>        -0.0955
     13 C10        -3.9550    8.3252   -2.7941 C.3       1 <0>         0.5070
     14 F1         -5.0950    7.5147   -2.8209 F         1 <0>        -0.1736
     15 F2         -4.2217    9.4809   -2.0522 F         1 <0>        -0.1654
     16 F3         -3.6047    8.6806   -4.1011 F         1 <0>        -0.1653
     17 Br1        -1.3174    9.9422   -2.6334 Br        1 <0>        -0.0198
     18 N2         -0.0847    1.2377   -0.3265 N.am      1 <0>        -0.7477
     19 C11        -0.1313   -0.1090   -0.3536 C.2       1 <0>         0.7129
     20 O2         -1.1935   -0.6835   -0.2124 O.2       1 <0>        -0.6040
     21 N3          0.9996   -0.8188   -0.5371 N.am      1 <0>        -0.8892
     22 H2         -1.7314    1.1331    1.7988 H         1 <0>         0.0803
     23 H3         -2.5313    2.7151    1.5087 H         1 <0>         0.0724
     24 H4         -0.7706    2.6497    1.8588 H         1 <0>         0.0655
     25 H5         -3.1319    3.9705   -0.2634 H         1 <0>         0.4455
     26 H6          0.0948    5.6556   -0.5210 H         1 <0>         0.1522
     27 H7          0.4334    7.9552   -1.3291 H         1 <0>         0.1501
     28 H8         -3.9772    5.8080   -1.8173 H         1 <0>         0.1524
     29 H9          0.8769    1.7574   -0.4497 H         1 <0>         0.4259
     30 H10         0.9616   -1.9179   -0.5592 H         1 <0>         0.4394
     31 H11         1.9606   -0.2990   -0.6647 H         1 <0>         0.4158
@<TRIPOS>BOND
     1    1    2 1
     2    1   22 1
     3    1   23 1
     4    1   24 1
     5    2    3 1
     6    2    4 1
     7    2   18 1
     8    4    5 2
     9    4    6 am
    10    6    7 1
    11    6   25 1
    12    7   12 ar
    13    7    8 ar
    14    8    9 ar
    15    8   26 1
    16    9   10 ar
    17    9   27 1
    18   10   11 ar
    19   10   17 1
    20   11   12 ar
    21   11   13 1
    22   12   28 1
    23   13   14 1
    24   13   15 1
    25   13   16 1
    26   18   19 am
    27   18   29 1
    28   19   20 2
    29   19   21 am
    30   21   30 1
    31   21   31 1
@<TRIPOS>MOLECULE
ZINC40377449
   36    37     0     0     0
SMALL
USER_CHARGES

@<TRIPOS>ATOM
      1 C1         -0.0184    1.5028    0.0103 C.3       1 <0>        -0.0805
      2 C2          0.0021   -0.0041    0.0020 C.2       1 <0>        -0.1028
      3 C3         -1.0392   -0.8719    0.0017 C.2       1 <0>        -0.2049
      4 C4         -0.7802   -2.2296   -0.0075 C.2       1 <0>         0.0048
      5 C5          0.5074   -2.6532   -0.0160 C.2       1 <0>        -0.7842
      6 S1          1.4039   -1.1093   -0.0179 S.3       1 <0>         0.2099
      7 S2          1.1337   -4.3001   -0.0287 S.o2      1 <0>         2.7298
      8 O1          2.4446   -4.2402    0.5164 O.2       1 <0>        -0.9411
      9 O2          0.1166   -5.1256    0.5220 O.2       1 <0>        -0.9450
     10 N1          1.3003   -4.7483   -1.6141 N.pl3     1 <0>        -1.1039
     11 C6          2.2660   -4.0582   -2.4729 C.3       1 <0>         0.2558
     12 H1          3.0575   -3.6295   -1.8581 H         1 <0>         0.1332
     13 C7          2.8632   -5.0402   -3.4476 C.ar      1 <0>        -0.0938
     14 C8          2.0628   -5.9982   -4.0414 C.ar      1 <0>        -0.1108
     15 C9          2.6106   -6.8990   -4.9355 C.ar      1 <0>        -0.1137
     16 C10         3.9586   -6.8415   -5.2361 C.ar      1 <0>        -0.1091
     17 C11         4.7588   -5.8830   -4.6429 C.ar      1 <0>        -0.1125
     18 C12         4.2102   -4.9795   -3.7521 C.ar      1 <0>        -0.0954
     19 C13         1.5679   -2.9589   -3.2314 C.2       1 <0>         0.3493
     20 N2          1.8815   -1.7246   -3.0146 N.2       1 <0>        -0.3993
     21 O3          1.2256   -0.6918   -3.7273 O.3       1 <0>        -0.4194
     22 N3          0.5956   -3.2702   -4.1558 N.pl3     1 <0>        -0.8611
     23 H2          1.0042    1.8801    0.0026 H         1 <0>         0.0783
     24 H3         -0.5455    1.8639   -0.8728 H         1 <0>         0.0887
     25 H4         -0.5286    1.8543    0.9071 H         1 <0>         0.0884
     26 H5         -2.0560   -0.5079    0.0090 H         1 <0>         0.1395
     27 H6         -1.5916   -2.9424   -0.0076 H         1 <0>         0.1418
     28 H7          0.7586   -5.4679   -1.9742 H         1 <0>         0.4221
     29 H8          1.0096   -6.0430   -3.8066 H         1 <0>         0.1212
     30 H9          1.9854   -7.6478   -5.3989 H         1 <0>         0.1278
     31 H10         4.3867   -7.5458   -5.9341 H         1 <0>         0.1265
     32 H11         5.8121   -5.8384   -4.8775 H         1 <0>         0.1292
     33 H12         4.8346   -4.2283   -3.2915 H         1 <0>         0.1311
     34 H13         1.5273    0.1977   -3.4974 H         1 <0>         0.3979
     35 H14         0.3602   -4.1970   -4.3186 H         1 <0>         0.3941
     36 H15         0.1463   -2.5627   -4.6440 H         1 <0>         0.4080
@<TRIPOS>BOND
     1    1    2 1
     2    1   23 1
     3    1   24 1
     4    1   25 1
     5    2    6 1
     6    2    3 2
     7    3    4 1
     8    3   26 1
     9    4    5 2
    10    4   27 1
    11    5    6 1
    12    5    7 1
    13    7    8 2
    14    7    9 2
    15    7   10 1
    16   10   11 1
    17   10   28 1
    18   11   12 1
    19   11   13 1
    20   11   19 1
    21   13   18 ar
    22   13   14 ar
    23   14   15 ar
    24   14   29 1
    25   15   16 ar
    26   15   30 1
    27   16   17 ar
    28   16   31 1
    29   17   18 ar
    30   17   32 1
    31   18   33 1
    32   19   20 2
    33   19   22 1
    34   20   21 1
    35   21   34 1
    36   22   35 1
    37   22   36 1
@<TRIPOS>MOLECULE
ZINC49043148
   45    46     0     0     0
SMALL
USER_CHARGES

@<TRIPOS>ATOM
      1 C1         -0.0167    1.3786    0.0096 C.ar      1 <0>        -0.0565
      2 C2          1.1689    2.0869    0.0021 C.ar      1 <0>        -0.1974
      3 C3          2.3811    1.4088   -0.0131 C.ar      1 <0>         0.2214
      4 C4          2.3964    0.0198   -0.0206 C.ar      1 <0>        -0.1951
      5 C5          1.2071   -0.6823   -0.0130 C.ar      1 <0>        -0.0577
      6 C6          0.0021   -0.0041    0.0020 C.ar      1 <0>        -0.1839
      7 C7         -1.2936   -0.7736    0.0107 C.3       1 <0>         0.1542
      8 H1         -2.0858   -0.1560   -0.4125 H         1 <0>         0.1120
      9 C8         -1.6537   -1.1498    1.4493 C.3       1 <0>         0.0843
     10 N1         -2.9133   -1.8978    1.4578 N.pl3     1 <0>        -1.1151
     11 S1         -3.3615   -2.7496    2.8054 S.o2      1 <0>         2.6091
     12 O1         -4.5971   -3.3579    2.4555 O.2       1 <0>        -0.9558
     13 O2         -2.2278   -3.5442    3.1257 O.2       1 <0>        -0.9514
     14 C9         -3.6247   -1.4918    4.0857 C.3       1 <0>        -0.6265
     15 C10        -4.0470   -2.1718    5.3896 C.3       1 <0>        -0.0754
     16 C11        -2.8990   -3.0413    5.9063 C.3       1 <0>        -0.1466
     17 C12        -3.3213   -3.7214    7.2102 C.3       1 <0>        -0.1197
     18 C13        -3.6636   -2.6559    8.2535 C.3       1 <0>        -0.1225
     19 C14        -4.8116   -1.7864    7.7368 C.3       1 <0>        -0.1231
     20 C15        -4.3893   -1.1064    6.4329 C.3       1 <0>        -0.1054
     21 O3         -1.1474   -1.9615   -0.7699 O.3       1 <0>        -0.5494
     22 N2          3.5820    2.1220   -0.0212 N.pl3     1 <0>        -0.8772
     23 H2         -0.9595    1.9052    0.0260 H         1 <0>         0.1237
     24 H3          1.1535    3.1668    0.0077 H         1 <0>         0.1220
     25 H4          3.3371   -0.5105   -0.0328 H         1 <0>         0.1224
     26 H5          1.2182   -1.7622   -0.0189 H         1 <0>         0.1215
     27 H6         -0.8615   -1.7674    1.8725 H         1 <0>         0.0857
     28 H7         -1.7653   -0.2436    2.0448 H         1 <0>         0.0754
     29 H8         -3.4848   -1.8942    0.6740 H         1 <0>         0.4218
     30 H9         -2.6994   -0.9388    4.2475 H         1 <0>         0.1317
     31 H10        -4.4073   -0.8045    3.7644 H         1 <0>         0.1343
     32 H11        -4.9218   -2.7959    5.2071 H         1 <0>         0.0851
     33 H12        -2.6551   -3.8004    5.1631 H         1 <0>         0.0825
     34 H13        -2.0242   -2.4172    6.0888 H         1 <0>         0.0733
     35 H14        -4.1961   -4.3455    7.0277 H         1 <0>         0.0649
     36 H15        -2.5034   -4.3408    7.5783 H         1 <0>         0.0683
     37 H16        -3.9645   -3.1404    9.1824 H         1 <0>         0.0639
     38 H17        -2.7888   -2.0318    8.4360 H         1 <0>         0.0627
     39 H18        -5.6864   -2.4105    7.5543 H         1 <0>         0.0646
     40 H19        -5.0555   -1.0274    8.4800 H         1 <0>         0.0655
     41 H20        -3.5146   -0.4822    6.6154 H         1 <0>         0.0666
     42 H21        -5.2072   -0.4869    6.0647 H         1 <0>         0.0659
     43 H22        -0.4581   -2.5598   -0.4504 H         1 <0>         0.3768
     44 H23         3.5702    3.0919   -0.0162 H         1 <0>         0.3994
     45 H24         4.4279    1.6474   -0.0318 H         1 <0>         0.3996
@<TRIPOS>BOND
     1    1    6 ar
     2    1    2 ar
     3    1   23 1
     4    2    3 ar
     5    2   24 1
     6    3    4 ar
     7    3   22 1
     8    4    5 ar
     9    4   25 1
    10    5    6 ar
    11    5   26 1
    12    6    7 1
    13    7    8 1
    14    7    9 1
    15    7   21 1
    16    9   10 1
    17    9   27 1
    18    9   28 1
    19   10   11 1
    20   10   29 1
    21   11   12 2
    22   11   13 2
    23   11   14 1
    24   14   15 1
    25   14   30 1
    26   14   31 1
    27   15   20 1
    28   15   16 1
    29   15   32 1
    30   16   17 1
    31   16   33 1
    32   16   34 1
    33   17   18 1
    34   17   35 1
    35   17   36 1
    36   18   19 1
    37   18   37 1
    38   18   38 1
    39   19   20 1
    40   19   39 1
    41   19   40 1
    42   20   41 1
    43   20   42 1
    44   21   43 1
    45   22   44 1
    46   22   45 1
@<TRIPOS>MOLECULE
ZINC51094982
   35    36     0     0     0
SMALL
USER_CHARGES

@<TRIPOS>ATOM
      1 C1         -0.0097    1.4655    0.0514 C.3       1 <0>        -0.1654
      2 C2         -0.0089   -0.0641    0.0179 C.3       1 <0>         0.1454
      3 H1         -1.0363   -0.4280    0.0129 H         1 <0>         0.0961
      4 C3          0.7163   -0.6009    1.2536 C.3       1 <0>        -0.0498
      5 C4          0.6109   -2.1039    1.2845 C.2       1 <0>        -0.0152
      6 C5          1.4827   -2.9651    0.7298 C.2       1 <0>        -0.2045
      7 C6          0.9993   -4.2665    0.9974 C.2       1 <0>        -0.2125
      8 C7         -0.1390   -4.1227    1.6996 C.2       1 <0>        -0.0392
      9 O1         -0.3662   -2.8108    1.8756 O.3       1 <0>        -0.1745
     10 N1          0.6785   -0.5257   -1.1906 N.am      1 <0>        -0.7135
     11 C8          0.0029   -0.6294   -2.3522 C.2       1 <0>         0.5852
     12 O2         -1.1773   -0.3398   -2.3970 O.2       1 <0>        -0.5497
     13 C9          0.6946   -1.0940   -3.5684 C.ar      1 <0>        -0.2660
     14 C10         2.0772   -1.3126   -3.5624 C.ar      1 <0>         0.0376
     15 C11         2.6789   -1.7491   -4.7298 C.ar      1 <0>        -0.2246
     16 C12         1.9053   -1.9553   -5.8594 C.ar      1 <0>         0.2212
     17 N2          0.6041   -1.7430   -5.8443 N.ar      1 <0>        -0.5205
     18 C13        -0.0228   -1.3309   -4.7531 C.ar      1 <0>         0.4683
     19 N3         -1.3904   -1.1268   -4.7813 N.pl3     1 <0>        -0.5365
     20 N4         -2.1082   -1.4623   -5.8940 N.3       1 <0>        -0.6024
     21 Br1         4.5433   -2.0609   -4.7820 Br        1 <0>        -0.0334
     22 H2          1.0178    1.8294    0.0564 H         1 <0>         0.0622
     23 H3         -0.5263    1.8479   -0.8289 H         1 <0>         0.0672
     24 H4         -0.5211    1.8090    0.9506 H         1 <0>         0.0721
     25 H5          1.7662   -0.3110    1.2133 H         1 <0>         0.1017
     26 H6          0.2591   -0.1861    2.1520 H         1 <0>         0.1027
     27 H7          2.3794   -2.7112    0.1841 H         1 <0>         0.1447
     28 H8          1.4560   -5.1975    0.6955 H         1 <0>         0.1483
     29 H9         -0.7622   -4.9261    2.0637 H         1 <0>         0.2026
     30 H10         1.6199   -0.7568   -1.1548 H         1 <0>         0.4004
     31 H11         2.6601   -1.1445   -2.6688 H         1 <0>         0.1434
     32 H12         2.3763   -2.2959   -6.7696 H         1 <0>         0.1713
     33 H13        -1.8398   -0.7454   -4.0109 H         1 <0>         0.4306
     34 H14        -1.9701   -2.4324   -6.1345 H         1 <0>         0.3460
     35 H15        -3.0880   -1.2570   -5.7677 H         1 <0>         0.3607
@<TRIPOS>BOND
     1    1    2 1
     2    1   22 1
     3    1   23 1
     4    1   24 1
     5    2    3 1
     6    2    4 1
     7    2   10 1
     8    4    5 1
     9    4   25 1
    10    4   26 1
    11    5    9 1
    12    5    6 2
    13    6    7 1
    14    6   27 1
    15    7    8 2
    16    7   28 1
    17    8    9 1
    18    8   29 1
    19   10   11 am
    20   10   30 1
    21   11   12 2
    22   11   13 1
    23   13   18 ar
    24   13   14 ar
    25   14   15 ar
    26   14   31 1
    27   15   16 ar
    28   15   21 1
    29   16   17 ar
    30   16   32 1
    31   17   18 ar
    32   18   19 1
    33   19   20 1
    34   19   33 1
    35   20   34 1
    36   20   35 1
@<TRIPOS>MOLECULE
ZINC66444601
   50    50     0     0     0
SMALL
USER_CHARGES

@<TRIPOS>ATOM
      1 C1         -0.0184    1.5028    0.0103 C.3       1 <0>        -0.1159
      2 C2          0.0021   -0.0041    0.0020 C.ar      1 <0>        -0.0851
      3 C3          0.0057   -0.6888   -1.1991 C.ar      1 <0>        -0.1252
      4 C4          0.0245   -2.0707   -1.2067 C.ar      1 <0>        -0.1083
      5 C5          0.0400   -2.7685   -0.0132 C.ar      1 <0>        -0.0866
      6 C6          0.0373   -2.0840    1.1875 C.ar      1 <0>        -0.0748
      7 C7          0.0229   -0.7015    1.1951 C.ar      1 <0>        -0.1189
      8 C8          0.0538   -2.8445    2.4885 C.3       1 <0>        -0.1217
      9 C9          0.0595   -4.2753   -0.0215 C.3       1 <0>        -0.0904
     10 C10        -1.3701   -4.8045    0.1093 C.3       1 <0>         0.1507
     11 H1         -1.8344   -4.3807    0.9998 H         1 <0>         0.0891
     12 C11        -1.3406   -6.3298    0.2263 C.3       1 <0>        -0.1659
     13 N1         -2.1432   -4.4204   -1.0743 N.am      1 <0>        -0.7245
     14 C12        -3.4844   -4.3113   -0.9970 C.2       1 <0>         0.5028
     15 O1         -4.0512   -4.5311    0.0525 O.2       1 <0>        -0.4983
     16 C13        -4.2796   -3.9161   -2.2145 C.3       1 <0>         0.1616
     17 H2         -3.7453   -3.1389   -2.7610 H         1 <0>         0.1089
     18 C14        -4.4693   -5.1363   -3.1179 C.3       1 <0>        -0.1188
     19 C15        -5.1673   -4.7100   -4.4110 C.3       1 <0>        -0.0786
     20 S1         -5.3921   -6.1566   -5.4820 S.3       1 <0>        -0.2594
     21 C16        -6.2211   -5.4902   -6.9515 C.3       1 <0>        -0.1215
     22 N2         -5.5893   -3.4082   -1.7987 N.am      1 <0>        -0.7360
     23 C17        -6.4297   -4.2003   -1.1038 C.2       1 <0>         0.7109
     24 O2         -6.1009   -5.3364   -0.8221 O.2       1 <0>        -0.5608
     25 N3         -7.6346   -3.7330   -0.7212 N.am      1 <0>        -0.8697
     26 H3          1.0042    1.8801    0.0026 H         1 <0>         0.0704
     27 H4         -0.5455    1.8639   -0.8728 H         1 <0>         0.0656
     28 H5         -0.5286    1.8543    0.9071 H         1 <0>         0.0654
     29 H6         -0.0064   -0.1437   -2.1314 H         1 <0>         0.1198
     30 H7          0.0266   -2.6056   -2.1449 H         1 <0>         0.1185
     31 H8          0.0246   -0.1666    2.1333 H         1 <0>         0.1201
     32 H9          1.0853   -3.0146    2.7969 H         1 <0>         0.0720
     33 H10        -0.4637   -2.2663    3.2539 H         1 <0>         0.0664
     34 H11        -0.4484   -3.8028    2.3555 H         1 <0>         0.0701
     35 H12         0.4932   -4.6279   -0.9572 H         1 <0>         0.0785
     36 H13         0.6582   -4.6356    0.8151 H         1 <0>         0.0904
     37 H14        -0.7654   -6.6156    1.1069 H         1 <0>         0.0653
     38 H15        -2.3591   -6.7068    0.3195 H         1 <0>         0.0652
     39 H16        -0.8764   -6.7535   -0.6642 H         1 <0>         0.0582
     40 H17        -1.6899   -4.2446   -1.9136 H         1 <0>         0.3955
     41 H18        -3.4966   -5.5674   -3.3552 H         1 <0>         0.0840
     42 H19        -5.0797   -5.8782   -2.6031 H         1 <0>         0.1077
     43 H20        -6.1399   -4.2789   -4.1737 H         1 <0>         0.0811
     44 H21        -4.5569   -3.9681   -4.9258 H         1 <0>         0.0799
     45 H22        -5.5885   -4.7319   -7.4129 H         1 <0>         0.0761
     46 H23        -6.4013   -6.2955   -7.6636 H         1 <0>         0.1029
     47 H24        -7.1715   -5.0427   -6.6608 H         1 <0>         0.0755
     48 H25        -5.8517   -2.5018   -2.0234 H         1 <0>         0.3996
     49 H26        -7.8969   -2.8266   -0.9459 H         1 <0>         0.3933
     50 H27        -8.2394   -4.3031   -0.2211 H         1 <0>         0.4152
@<TRIPOS>BOND
     1    1    2 1
     2    1   26 1
     3    1   27 1
     4    1   28 1
     5    2    7 ar
     6    2    3 ar
     7    3    4 ar
     8    3   29 1
     9    4    5 ar
    10    4   30 1
    11    5    6 ar
    12    5    9 1
    13    6    7 ar
    14    6    8 1
    15    7   31 1
    16    8   32 1
    17    8   33 1
    18    8   34 1
    19    9   10 1
    20    9   35 1
    21    9   36 1
    22   10   11 1
    23   10   12 1
    24   10   13 1
    25   12   37 1
    26   12   38 1
    27   12   39 1
    28   13   14 am
    29   13   40 1
    30   14   15 2
    31   14   16 1
    32   16   17 1
    33   16   18 1
    34   16   22 1
    35   18   19 1
    36   18   41 1
    37   18   42 1
    38   19   20 1
    39   19   43 1
    40   19   44 1
    41   20   21 1
    42   21   45 1
    43   21   46 1
    44   21   47 1
    45   22   23 am
    46   22   48 1
    47   23   24 2
    48   23   25 am
    49   25   49 1
    50   25   50 1
@<TRIPOS>MOLECULE
ZINC37583449
   37    38     0     0     0
SMALL
USER_CHARGES

@<TRIPOS>ATOM
      1 C1         -0.0408    1.5024    0.0143 C.3       1 <0>        -0.1076
      2 C2         -0.0144   -0.0043    0.0049 C.ar      1 <0>        -0.1014
      3 C3         -1.1465   -0.7120   -0.3553 C.ar      1 <0>        -0.1176
      4 C4         -1.1256   -2.0929   -0.3649 C.ar      1 <0>        -0.1251
      5 C5          0.0342   -2.7707   -0.0127 C.ar      1 <0>         0.1604
      6 C6          1.1696   -2.0571    0.3482 C.ar      1 <0>        -0.0837
      7 C7          1.1436   -0.6762    0.3511 C.ar      1 <0>        -0.1152
      8 N1          0.0586   -4.1697   -0.0209 N.am      1 <0>        -0.5419
      9 C8         -0.0429   -4.8967   -1.2888 C.3       1 <0>         0.0349
     10 C9          1.3372   -5.1205   -1.8513 C.2       1 <0>         0.4806
     11 O1          2.3148   -4.7108   -1.2490 O.co2     1 <0>        -0.6777
     12 O2          1.4760   -5.7113   -2.9087 O.co2     1 <0>        -0.6956
     13 C10         0.1754   -4.8485    1.1376 C.2       1 <0>         0.5297
     14 O3          0.1732   -4.2513    2.1932 O.2       1 <0>        -0.5516
     15 C11         0.3087   -6.3495    1.1213 C.3       1 <0>        -0.1329
     16 C12         0.4245   -6.8669    2.5565 C.3       1 <0>        -0.0195
     17 C13         0.5579   -8.3679    2.5402 C.2       1 <0>        -0.1208
     18 C14         1.6812   -9.1245    2.4858 C.2       1 <0>        -0.1656
     19 C15         1.5623  -10.5016    2.4821 C.2       1 <0>        -0.1479
     20 C16         0.3259  -11.0548    2.5331 C.2       1 <0>        -0.1858
     21 S1         -0.7223   -9.6110    2.5955 S.3       1 <0>         0.0200
     22 H1          0.2532    1.8770   -0.9662 H         1 <0>         0.0660
     23 H2         -1.0483    1.8467    0.2476 H         1 <0>         0.0617
     24 H3          0.6536    1.8733    0.7681 H         1 <0>         0.0626
     25 H4         -2.0481   -0.1843   -0.6291 H         1 <0>         0.1197
     26 H5         -2.0103   -2.6450   -0.6456 H         1 <0>         0.1196
     27 H6          2.0730   -2.5814    0.6229 H         1 <0>         0.1287
     28 H7          2.0275   -0.1206    0.6276 H         1 <0>         0.1205
     29 H8         -0.5262   -5.8587   -1.1184 H         1 <0>         0.0807
     30 H9         -0.6332   -4.3136   -1.9957 H         1 <0>         0.0783
     31 H10        -0.5697   -6.7872    0.6470 H         1 <0>         0.0911
     32 H11         1.2011   -6.6289    0.5612 H         1 <0>         0.1071
     33 H12         1.3030   -6.4292    3.0307 H         1 <0>         0.0952
     34 H13        -0.4679   -6.5874    3.1165 H         1 <0>         0.0849
     35 H14         2.6546   -8.6583    2.4455 H         1 <0>         0.1349
     36 H15         2.4414  -11.1275    2.4389 H         1 <0>         0.1312
     37 H16         0.0474  -12.0982    2.5386 H         1 <0>         0.1820
@<TRIPOS>BOND
     1    1    2 1
     2    1   22 1
     3    1   23 1
     4    1   24 1
     5    2    7 ar
     6    2    3 ar
     7    3    4 ar
     8    3   25 1
     9    4    5 ar
    10    4   26 1
    11    5    6 ar
    12    5    8 1
    13    6    7 ar
    14    6   27 1
    15    7   28 1
    16    8    9 1
    17    8   13 am
    18    9   10 1
    19    9   29 1
    20    9   30 1
    21   10   11 2
    22   10   12 1
    23   13   14 2
    24   13   15 1
    25   15   16 1
    26   15   31 1
    27   15   32 1
    28   16   17 1
    29   16   33 1
    30   16   34 1
    31   17   21 1
    32   17   18 2
    33   18   19 1
    34   18   35 1
    35   19   20 2
    36   19   36 1
    37   20   21 1
    38   20   37 1
@<TRIPOS>MOLECULE
ZINC37994144
   39    39     0     0     0
SMALL
USER_CHARGES

@<TRIPOS>ATOM
      1 C1         -1.7995    1.5524    0.3213 C.3       1 <0>        -0.1511
      2 C2         -1.4921    0.0540    0.2866 C.3       1 <0>        -0.1185
      3 C3         -2.7941   -0.7298    0.1095 C.3       1 <0>        -0.0568
      4 C4         -2.4914   -2.2057    0.0753 C.2       1 <0>        -0.1579
      5 C5         -2.3189   -2.8539   -1.1242 C.2       1 <0>        -0.0813
      6 C6         -2.0445   -4.2105   -1.0417 C.2       1 <0>        -0.2444
      7 S1         -2.0485   -4.4783    0.7208 S.3       1 <0>         0.2864
      8 C7         -2.3798   -2.9113    1.2278 C.2       1 <0>        -0.2470
      9 C8         -2.5228   -2.4060    2.6403 C.3       1 <0>        -0.0653
     10 C9         -1.8117   -5.1735   -2.1220 C.2       1 <0>         0.6126
     11 O1         -1.9736   -4.8388   -3.2809 O.2       1 <0>        -0.5575
     12 N1         -1.4184   -6.4295   -1.8320 N.am      1 <0>        -0.5694
     13 C10        -1.2838   -6.8509   -0.4354 C.3       1 <0>         0.0239
     14 C11        -2.6342   -7.2506    0.1010 C.2       1 <0>         0.4831
     15 O2         -3.6179   -7.1891   -0.6167 O.co2     1 <0>        -0.6699
     16 O3         -2.7431   -7.6354    1.2528 O.co2     1 <0>        -0.6899
     17 C12        -1.1254   -7.3734   -2.9134 C.3       1 <0>         0.1379
     18 C13         0.3596   -7.7403   -2.8818 C.3       1 <0>        -0.1597
     19 C14        -1.9671   -8.6377   -2.7289 C.3       1 <0>        -0.1537
     20 H1         -0.8719    2.1107    0.4475 H         1 <0>         0.0512
     21 H2         -2.2767    1.8471   -0.6133 H         1 <0>         0.0528
     22 H3         -2.4689    1.7668    1.1545 H         1 <0>         0.0521
     23 H4         -0.8228   -0.1604   -0.5465 H         1 <0>         0.0612
     24 H5         -1.0149   -0.2408    1.2213 H         1 <0>         0.0607
     25 H6         -3.4635   -0.5154    0.9426 H         1 <0>         0.0656
     26 H7         -3.2713   -0.4351   -0.8251 H         1 <0>         0.0648
     27 H8         -2.3929   -2.3394   -2.0709 H         1 <0>         0.1384
     28 H9         -3.5637   -2.4896    2.9525 H         1 <0>         0.0740
     29 H10        -1.8954   -3.0008    3.3043 H         1 <0>         0.0697
     30 H11        -2.2126   -1.3621    2.6859 H         1 <0>         0.0719
     31 H12        -0.6034   -7.7004   -0.3762 H         1 <0>         0.0879
     32 H13        -0.8874   -6.0259    0.1564 H         1 <0>         0.0730
     33 H14        -1.3658   -6.9137   -3.8721 H         1 <0>         0.0963
     34 H15         0.6000   -8.2000   -1.9232 H         1 <0>         0.0570
     35 H16         0.5776   -8.4425   -3.6864 H         1 <0>         0.0645
     36 H17         0.9592   -6.8396   -3.0133 H         1 <0>         0.0544
     37 H18        -3.0251   -8.3763   -2.7514 H         1 <0>         0.0744
     38 H19        -1.7491   -9.3400   -3.5335 H         1 <0>         0.0535
     39 H20        -1.7267   -9.0974   -1.7702 H         1 <0>         0.0553
@<TRIPOS>BOND
     1    1    2 1
     2    1   20 1
     3    1   21 1
     4    1   22 1
     5    2    3 1
     6    2   23 1
     7    2   24 1
     8    3    4 1
     9    3   25 1
    10    3   26 1
    11    4    8 2
    12    4    5 1
    13    5    6 2
    14    5   27 1
    15    6    7 1
    16    6   10 1
    17    7    8 1
    18    8    9 1
    19    9   28 1
    20    9   29 1
    21    9   30 1
    22   10   11 2
    23   10   12 am
    24   12   13 1
    25   12   17 1
    26   13   14 1
    27   13   31 1
    28   13   32 1
    29   14   15 2
    30   14   16 1
    31   17   18 1
    32   17   19 1
    33   17   33 1
    34   18   34 1
    35   18   35 1
    36   18   36 1
    37   19   37 1
    38   19   38 1
    39   19   39 1
@<TRIPOS>MOLECULE
ZINC44613604
   48    48     0     0     0
SMALL
USER_CHARGES

@<TRIPOS>ATOM
      1 C1          3.9077   -2.4916   -2.1646 C.3       1 <0>        -0.1463
      2 C2          3.2352   -2.3690   -0.7958 C.3       1 <0>        -0.1223
      3 C3          3.0899   -0.8906   -0.4295 C.3       1 <0>         0.0597
      4 H1          4.0651   -0.4064   -0.4796 H         1 <0>         0.0911
      5 C4          2.5408   -0.7712    0.9688 C.2       1 <0>         0.4905
      6 O1          3.3016   -0.7219    1.9203 O.co2     1 <0>        -0.6935
      7 O2          1.3359   -0.7239    1.1486 O.co2     1 <0>        -0.6818
      8 N1          2.1737   -0.2421   -1.3709 N.am      1 <0>        -0.5768
      9 C5          0.7934   -0.7170   -1.4947 C.3       1 <0>         0.1097
     10 C6          2.6007    0.7915   -2.1231 C.2       1 <0>         0.5109
     11 O3          1.8204    1.3851   -2.8371 O.2       1 <0>        -0.5652
     12 C7          4.0478    1.2096   -2.0771 C.3       1 <0>        -0.1022
     13 C8          4.3148    1.9813   -0.7832 C.3       1 <0>        -0.1176
     14 C9          5.7840    2.4058   -0.7365 C.3       1 <0>        -0.1114
     15 C10         6.0946    3.3012   -1.9376 C.3       1 <0>        -0.0765
     16 C11         5.8276    2.5296   -3.2315 C.3       1 <0>        -0.1148
     17 C12         4.3584    2.1051   -3.2782 C.3       1 <0>        -0.0962
     18 C13         7.5637    3.7258   -1.8909 C.3       1 <0>        -0.0644
     19 C14         8.4554    2.4833   -1.9370 C.3       1 <0>        -0.1459
     20 C15         7.8743    4.6212   -3.0920 C.3       1 <0>        -0.1421
     21 C16         7.8307    4.4974   -0.5970 C.3       1 <0>        -0.1442
     22 H2          3.2976   -1.9895   -2.9155 H         1 <0>         0.0503
     23 H3          4.8934   -2.0277   -2.1280 H         1 <0>         0.0494
     24 H4          4.0113   -3.5448   -2.4256 H         1 <0>         0.0490
     25 H5          2.2495   -2.8329   -0.8325 H         1 <0>         0.0643
     26 H6          3.8454   -2.8711   -0.0450 H         1 <0>         0.0715
     27 H7          0.1439   -0.1160   -0.8583 H         1 <0>         0.0599
     28 H8          0.4699   -0.6274   -2.5317 H         1 <0>         0.0487
     29 H9          0.7393   -1.7611   -1.1862 H         1 <0>         0.0656
     30 H10         4.6830    0.3245   -2.1099 H         1 <0>         0.0882
     31 H11         3.6796    2.8665   -0.7504 H         1 <0>         0.0634
     32 H12         4.0936    1.3434    0.0725 H         1 <0>         0.0822
     33 H13         5.9742    2.9555    0.1853 H         1 <0>         0.0671
     34 H14         6.4192    1.5206   -0.7693 H         1 <0>         0.0661
     35 H15         5.4594    4.1864   -1.9048 H         1 <0>         0.0688
     36 H16         6.0488    3.1675   -4.0872 H         1 <0>         0.0636
     37 H17         6.4628    1.6444   -3.2643 H         1 <0>         0.0637
     38 H18         4.1682    1.5553   -4.2001 H         1 <0>         0.0608
     39 H19         3.7232    2.9902   -3.2454 H         1 <0>         0.0694
     40 H20         8.2652    1.9335   -2.8588 H         1 <0>         0.0568
     41 H21         9.5020    2.7857   -1.9037 H         1 <0>         0.0485
     42 H22         8.2341    1.8454   -1.0813 H         1 <0>         0.0602
     43 H23         7.2391    5.5063   -3.0592 H         1 <0>         0.0522
     44 H24         8.9210    4.9236   -3.0587 H         1 <0>         0.0497
     45 H25         7.6841    4.0714   -4.0138 H         1 <0>         0.0571
     46 H26         7.6095    3.8595    0.2587 H         1 <0>         0.0604
     47 H27         8.8774    4.7998   -0.5637 H         1 <0>         0.0498
     48 H28         7.1955    5.3826   -0.5642 H         1 <0>         0.0524
@<TRIPOS>BOND
     1    1    2 1
     2    1   22 1
     3    1   23 1
     4    1   24 1
     5    2    3 1
     6    2   25 1
     7    2   26 1
     8    3    4 1
     9    3    5 1
    10    3    8 1
    11    5    6 2
    12    5    7 1
    13    8    9 1
    14    8   10 am
    15    9   27 1
    16    9   28 1
    17    9   29 1
    18   10   11 2
    19   10   12 1
    20   12   17 1
    21   12   13 1
    22   12   30 1
    23   13   14 1
    24   13   31 1
    25   13   32 1
    26   14   15 1
    27   14   33 1
    28   14   34 1
    29   15   16 1
    30   15   18 1
    31   15   35 1
    32   16   17 1
    33   16   36 1
    34   16   37 1
    35   17   38 1
    36   17   39 1
    37   18   19 1
    38   18   20 1
    39   18   21 1
    40   19   40 1
    41   19   41 1
    42   19   42 1
    43   20   43 1
    44   20   44 1
    45   20   45 1
    46   21   46 1
    47   21   47 1
    48   21   48 1
@<TRIPOS>MOLECULE
ZINC43699187
   40    41     0     0     0
SMALL
USER_CHARGES

@<TRIPOS>ATOM
      1 C1          0.6326   -1.2411   -0.7154 C.3       1 <0>        -0.1944
      2 C2         -0.1139   -0.2263    0.1529 C.3       1 <0>         0.0420
      3 N1         -1.5617   -0.4206   -0.0020 N.3       1 <0>        -0.5204
      4 C3         -1.9490   -1.7938    0.3476 C.3       1 <0>         0.1410
      5 C4         -1.7118   -2.0238    1.8179 C.2       1 <0>        -0.1768
      6 C5         -2.5625   -1.8266    2.8437 C.2       1 <0>        -0.1078
      7 C6         -2.0469   -2.1397    4.1563 C.2       1 <0>        -0.0870
      8 C7         -0.7475   -2.6038    4.2188 C.2       1 <0>        -0.2481
      9 S1         -0.2426   -2.6289    2.6190 S.3       1 <0>         0.1188
     10 C8         -2.8620   -1.9726    5.3619 C.2       1 <0>        -0.0937
     11 C9         -2.3442   -2.2768    6.5781 C.2       1 <0>        -0.1689
     12 C10        -3.1284   -2.1160    7.7381 C.2       1 <0>         0.5003
     13 O1         -4.2784   -1.7013    7.6479 O.co2     1 <0>        -0.6966
     14 O2         -2.6605   -2.3909    8.8373 O.co2     1 <0>        -0.7021
     15 C11        -1.9956   -0.0818   -1.3640 C.3       1 <0>         0.0520
     16 C12        -2.0374    1.4394   -1.5224 C.3       1 <0>         0.0886
     17 H1         -1.0445    1.8625   -1.3695 H         1 <0>         0.0678
     18 C13        -2.5738    1.8196   -2.9254 C.3       1 <0>        -0.1527
     19 C14        -3.1317    3.2429   -2.6520 C.3       1 <0>        -0.1553
     20 C15        -3.6486    3.1194   -1.2026 C.3       1 <0>         0.0458
     21 O3         -2.9717    2.0119   -0.5935 O.3       1 <0>        -0.3563
     22 H2          1.7065   -1.0808   -0.6197 H         1 <0>         0.0636
     23 H3          0.3855   -2.2509   -0.3879 H         1 <0>         0.0597
     24 H4          0.3377   -1.1146   -1.7571 H         1 <0>         0.0544
     25 H5          0.1622   -0.3693    1.1976 H         1 <0>         0.0841
     26 H6          0.1526    0.7837   -0.1583 H         1 <0>         0.0740
     27 H7         -3.0052   -1.9419    0.1224 H         1 <0>         0.0924
     28 H8         -1.3519   -2.4983   -0.2314 H         1 <0>         0.0517
     29 H9         -3.5664   -1.4575    2.6942 H         1 <0>         0.1401
     30 H10        -0.1864   -2.8894    5.0963 H         1 <0>         0.1811
     31 H11        -3.8752   -1.6071    5.2824 H         1 <0>         0.1260
     32 H12        -1.3310   -2.6422    6.6577 H         1 <0>         0.0956
     33 H13        -1.2940   -0.5029   -2.0841 H         1 <0>         0.0539
     34 H14        -2.9893   -0.4930   -1.5416 H         1 <0>         0.0795
     35 H15        -1.7686    1.8476   -3.6595 H         1 <0>         0.0807
     36 H16        -3.3664    1.1407   -3.2401 H         1 <0>         0.0792
     37 H17        -2.3403    3.9894   -2.7194 H         1 <0>         0.0747
     38 H18        -3.9473    3.4779   -3.3360 H         1 <0>         0.0800
     39 H19        -3.4278    4.0339   -0.6521 H         1 <0>         0.0657
     40 H20        -4.7237    2.9397   -1.2074 H         1 <0>         0.0672
@<TRIPOS>BOND
     1    1    2 1
     2    1   22 1
     3    1   23 1
     4    1   24 1
     5    2    3 1
     6    2   25 1
     7    2   26 1
     8    3    4 1
     9    3   15 1
    10    4    5 1
    11    4   27 1
    12    4   28 1
    13    5    9 1
    14    5    6 2
    15    6    7 1
    16    6   29 1
    17    7    8 2
    18    7   10 1
    19    8    9 1
    20    8   30 1
    21   10   11 2
    22   10   31 1
    23   11   12 1
    24   11   32 1
    25   12   13 2
    26   12   14 1
    27   15   16 1
    28   15   33 1
    29   15   34 1
    30   16   17 1
    31   16   21 1
    32   16   18 1
    33   18   19 1
    34   18   35 1
    35   18   36 1
    36   19   20 1
    37   19   37 1
    38   19   38 1
    39   20   21 1
    40   20   39 1
    41   20   40 1
@<TRIPOS>MOLECULE
ZINC62914569
   40    40     0     0     0
SMALL
USER_CHARGES

@<TRIPOS>ATOM
      1 C1         -0.0187    1.5258    0.0104 C.3       1 <0>        -0.1574
      2 C2          0.0021   -0.0041    0.0020 C.3       1 <0>        -0.0875
      3 C3          0.7182   -0.4975   -1.2568 C.3       1 <0>        -0.1409
      4 C4          2.2026   -0.0654   -1.2345 C.3       1 <0>        -0.1061
      5 C5          2.9199   -1.3257   -0.6889 C.3       1 <0>         0.0965
      6 N1          2.1688   -2.4402   -1.3114 N.am      1 <0>        -0.6106
      7 C6          0.7504   -2.0369   -1.2853 C.3       1 <0>         0.1184
      8 C7          2.6775   -3.5877   -1.8022 C.2       1 <0>         0.5432
      9 O1          1.9401   -4.4192   -2.2878 O.2       1 <0>        -0.5229
     10 C8          4.1627   -3.8377   -1.7476 C.3       1 <0>        -0.1194
     11 S1          4.5309   -5.4556   -2.4806 S.3       1 <0>        -0.1737
     12 C9          6.3334   -5.6016   -2.3388 C.3       1 <0>        -0.0564
     13 C10         6.7364   -5.5316   -0.8645 C.3       1 <0>        -0.1430
     14 C11         6.7846   -6.9397   -2.9279 C.3       1 <0>        -0.1247
     15 C12         6.9997   -4.4567   -3.1045 C.3       1 <0>        -0.1443
     16 C13         0.0343    0.0347   -2.4897 C.2       1 <0>         0.5074
     17 O2         -0.0652    1.2379   -2.6603 O.co2     1 <0>        -0.6848
     18 O3         -0.4195   -0.7378   -3.3166 O.co2     1 <0>        -0.6873
     19 H1          1.0039    1.9031    0.0027 H         1 <0>         0.0449
     20 H2         -0.5459    1.8868   -0.8726 H         1 <0>         0.0964
     21 H3         -0.5289    1.8773    0.9072 H         1 <0>         0.0303
     22 H4          0.5293   -0.3651    0.8851 H         1 <0>         0.0438
     23 H5         -1.0205   -0.3814    0.0098 H         1 <0>         0.0534
     24 H6          2.5506    0.1720   -2.2398 H         1 <0>         0.0689
     25 H7          2.3479    0.7820   -0.5644 H         1 <0>         0.0804
     26 H8          3.9631   -1.3414   -1.0044 H         1 <0>         0.0703
     27 H9          2.8449   -1.3709    0.3976 H         1 <0>         0.0704
     28 H10         0.2676   -2.4349   -0.3927 H         1 <0>         0.0521
     29 H11         0.2440   -2.4024   -2.1787 H         1 <0>         0.1032
     30 H12         4.6829   -3.0591   -2.3055 H         1 <0>         0.1059
     31 H13         4.4953   -3.8249   -0.7097 H         1 <0>         0.1043
     32 H14         6.2617   -6.3472   -0.3190 H         1 <0>         0.0677
     33 H15         7.8195   -5.6193   -0.7793 H         1 <0>         0.0624
     34 H16         6.4149   -4.5783   -0.4449 H         1 <0>         0.0544
     35 H17         6.4976   -6.9895   -3.9782 H         1 <0>         0.0653
     36 H18         7.8677   -7.0274   -2.8426 H         1 <0>         0.0684
     37 H19         6.3100   -7.7553   -2.3824 H         1 <0>         0.0644
     38 H20         6.6782   -3.5035   -2.6849 H         1 <0>         0.0549
     39 H21         8.0828   -4.5445   -3.0193 H         1 <0>         0.0625
     40 H22         6.7126   -4.5066   -4.1549 H         1 <0>         0.0691
@<TRIPOS>BOND
     1    1    2 1
     2    1   19 1
     3    1   20 1
     4    1   21 1
     5    2    3 1
     6    2   22 1
     7    2   23 1
     8    3    7 1
     9    3    4 1
    10    3   16 1
    11    4    5 1
    12    4   24 1
    13    4   25 1
    14    5    6 1
    15    5   26 1
    16    5   27 1
    17    6    7 1
    18    6    8 am
    19    7   28 1
    20    7   29 1
    21    8    9 2
    22    8   10 1
    23   10   11 1
    24   10   30 1
    25   10   31 1
    26   11   12 1
    27   12   13 1
    28   12   14 1
    29   12   15 1
    30   13   32 1
    31   13   33 1
    32   13   34 1
    33   14   35 1
    34   14   36 1
    35   14   37 1
    36   15   38 1
    37   15   39 1
    38   15   40 1
    39   16   17 2
    40   16   18 1
@<TRIPOS>MOLECULE
ZINC08994148
   53    54     0     0     0
SMALL
USER_CHARGES
2-[2-[(3-hydroxy-2H-quinoxalin-1-yl)carbonylamino]-3-methyl-butanoyl]amino-3-methyl-butanoic acid
@<TRIPOS>ATOM
      1 C1          3.2799    6.9940    0.8567 C.3       1 <0>        -0.1352
      2 C2          1.8630    7.1859    1.4011 C.3       1 <0>        -0.1002
      3 H1          1.7099    8.2351    1.6539 H         1 <0>         0.0848
      4 C3          0.8467    6.7638    0.3382 C.3       1 <0>        -0.1459
      5 C4          1.6774    6.3272    2.6538 C.3       1 <0>         0.1501
      6 H2          2.4530    6.5711    3.3798 H         1 <0>         0.1101
      7 C5          0.3228    6.6015    3.2546 C.2       1 <0>         0.5155
      8 O1         -0.5977    5.8392    3.0483 O.2       1 <0>        -0.5392
      9 N1          0.1343    7.6939    4.0211 N.am      1 <0>        -0.6923
     10 C6         -1.2059    8.0197    4.5152 C.3       1 <0>         0.1020
     11 H3         -1.9469    7.7427    3.7653 H         1 <0>         0.0864
     12 C7         -1.2965    9.5218    4.7911 C.3       1 <0>        -0.0807
     13 H4         -1.1050   10.0726    3.8702 H         1 <0>         0.0581
     14 C8         -0.2565    9.9107    5.8437 C.3       1 <0>        -0.1451
     15 C9         -2.6961    9.8621    5.3071 C.3       1 <0>        -0.1571
     16 C10        -1.4708    7.2582    5.7883 C.2       1 <0>         0.4648
     17 O2         -0.6267    6.5192    6.2370 O.co2     1 <0>        -0.6287
     18 N2          1.7740    4.9105    2.2934 N.am      1 <0>        -0.7126
     19 C11         2.9805    4.3144    2.2209 C.2       1 <0>         0.7194
     20 O3          3.9889    4.9524    2.4545 O.2       1 <0>        -0.5563
     21 N3          3.0694    3.0110    1.8893 N.am      1 <0>        -0.5686
     22 C12         1.8694    2.2086    1.6002 C.3       1 <0>         0.1239
     23 C13         2.0361    0.8413    2.2102 C.2       1 <0>         0.3502
     24 N4          3.2057    0.3196    2.3996 N.2       1 <0>        -0.5505
     25 C14         4.3548    0.9813    2.0581 C.ar      1 <0>         0.0852
     26 C15         4.3098    2.3602    1.8044 C.ar      1 <0>         0.1263
     27 C16         5.4628    3.0467    1.4797 C.ar      1 <0>        -0.1083
     28 C17         6.6669    2.3675    1.4005 C.ar      1 <0>        -0.1050
     29 C18         6.7181    1.0068    1.6451 C.ar      1 <0>        -0.1285
     30 C19         5.5714    0.3096    1.9730 C.ar      1 <0>        -0.0802
     31 O4          0.9388    0.1451    2.5734 O.3       1 <0>        -0.4531
     32 H5          3.4330    5.9448    0.6040 H         1 <0>         0.0561
     33 H6          3.4122    7.6057   -0.0357 H         1 <0>         0.0488
     34 H7          4.0040    7.2947    1.6139 H         1 <0>         0.0629
     35 H8          0.9458    5.6957    0.1447 H         1 <0>         0.0544
     36 H9         -0.1612    6.9765    0.6945 H         1 <0>         0.0598
     37 H10         1.0315    7.3184   -0.5817 H         1 <0>         0.0561
     38 H11         0.8859    8.2644    4.2457 H         1 <0>         0.3936
     39 H12        -0.4480    9.3599    6.7646 H         1 <0>         0.0653
     40 H13         0.7407    9.6683    5.4761 H         1 <0>         0.0440
     41 H14        -0.3210   10.9809    6.0403 H         1 <0>         0.0508
     42 H15        -2.8877    9.3113    6.2280 H         1 <0>         0.1095
     43 H16        -2.7607   10.9322    5.5037 H         1 <0>         0.0356
     44 H17        -3.4371    9.5850    4.5572 H         1 <0>         0.0441
     45 H18         0.9695    4.4015    2.1071 H         1 <0>         0.4070
     46 H19         1.7450    2.1141    0.5214 H         1 <0>         0.1103
     47 H20         0.9922    2.6943    2.0275 H         1 <0>         0.1205
     48 H21         5.4257    4.1088    1.2879 H         1 <0>         0.1482
     49 H22         7.5702    2.9024    1.1470 H         1 <0>         0.1280
     50 H23         7.6618    0.4857    1.5796 H         1 <0>         0.1273
     51 H24         5.6185   -0.7525    2.1629 H         1 <0>         0.1323
     52 H25         1.1319   -0.7217    2.9562 H         1 <0>         0.4122
     53 O5         -2.6444    7.4009    6.4239 O.co2     1 <0>        -0.7560
@<TRIPOS>BOND
     1    1    2 1
     2    1   32 1
     3    1   33 1
     4    1   34 1
     5    2    3 1
     6    2    4 1
     7    2    5 1
     8    4   35 1
     9    4   36 1
    10    4   37 1
    11    5    6 1
    12    5    7 1
    13    5   18 1
    14    7    8 2
    15    7    9 am
    16    9   10 1
    17    9   38 1
    18   10   11 1
    19   10   12 1
    20   10   16 1
    21   12   13 1
    22   12   14 1
    23   12   15 1
    24   14   39 1
    25   14   40 1
    26   14   41 1
    27   15   42 1
    28   15   43 1
    29   15   44 1
    30   16   17 2
    31   16   53 1
    32   18   19 am
    33   18   45 1
    34   19   20 2
    35   19   21 am
    36   21   26 1
    37   21   22 1
    38   22   23 1
    39   22   46 1
    40   22   47 1
    41   23   24 2
    42   23   31 1
    43   24   25 1
    44   25   30 ar
    45   25   26 ar
    46   26   27 ar
    47   27   28 ar
    48   27   48 1
    49   28   29 ar
    50   28   49 1
    51   29   30 ar
    52   29   50 1
    53   30   51 1
    54   31   52 1
@<TRIPOS>MOLECULE
ZINC13452336
   50    53     0     0     0
SMALL
USER_CHARGES
2-[2-[(3-carbamoyl-4,5,6,7-tetrahydrobenzothiophen-2-yl)amino]-2-oxo-ethyl]sulfanyl-3-(4-fluorophenyl)imidazole-4-carboxylic acid
@<TRIPOS>ATOM
      1 C1         -2.9718    0.1909    1.1232 C.ar      1 <0>        -0.0227
      2 C2         -4.3001    0.5690    1.1335 C.ar      1 <0>        -0.1430
      3 C3         -5.1134    0.2739    0.0523 C.ar      1 <0>         0.1042
      4 C4         -4.5954   -0.3956   -1.0437 C.ar      1 <0>        -0.1481
      5 C5         -3.2662   -0.7703   -1.0602 C.ar      1 <0>        -0.0771
      6 C6         -2.4493   -0.4753    0.0229 C.ar      1 <0>         0.1284
      7 N1         -1.0998   -0.8548    0.0080 N.pl3     1 <0>        -0.3713
      8 C7          0.0021   -0.0041    0.0020 C.2       1 <0>        -0.0106
      9 C8          1.1163   -0.8169   -0.0190 C.2       1 <0>         0.0183
     10 N2          0.7035   -2.0816   -0.0158 N.2       1 <0>        -0.4904
     11 C9         -0.6143   -2.1250   -0.0035 C.2       1 <0>         0.1507
     12 S1         -1.5894   -3.5926   -0.0011 S.3       1 <0>         0.0662
     13 C10        -0.2787   -4.8408   -0.0208 C.3       1 <0>        -0.1419
     14 C11        -0.8947   -6.2161   -0.0217 C.2       1 <0>         0.5313
     15 O1         -2.1011   -6.3402   -0.0101 O.2       1 <0>        -0.4812
     16 N3         -0.1050   -7.3082   -0.0353 N.am      1 <0>        -0.6164
     17 C12        -0.6718   -8.5737   -0.0360 C.2       1 <0>         0.0787
     18 C13        -0.0321   -9.8050   -0.0545 C.2       1 <0>        -0.2318
     19 C14        -0.8657  -10.9950   -0.0475 C.2       1 <0>        -0.0652
     20 C15        -2.1966  -10.7650   -0.0333 C.2       1 <0>        -0.2127
     21 S2         -2.3508   -9.0013   -0.0218 S.3       1 <0>         0.2358
     22 C16        -3.2901  -11.7882   -0.0292 C.3       1 <0>        -0.0351
     23 C17        -2.6852  -13.1441   -0.4213 C.3       1 <0>        -0.1137
     24 C18        -1.4144  -13.3739    0.4018 C.3       1 <0>        -0.1190
     25 C19        -0.3151  -12.4157   -0.0604 C.3       1 <0>        -0.0605
     26 C20         1.4308   -9.9015   -0.0763 C.2       1 <0>         0.5852
     27 O2          2.0531   -9.9500    0.9686 O.2       1 <0>        -0.5337
     28 N4          2.0864   -9.9366   -1.2533 N.am      1 <0>        -0.8477
     29 C21        -0.0171    1.4126    0.0098 C.2       1 <0>         0.5094
     30 O3          1.0284    2.0354    0.0032 O.co2     1 <0>        -0.6181
     31 F1         -6.4138    0.6400    0.0664 F         1 <0>        -0.1410
     32 H1         -2.3389    0.4173    1.9685 H         1 <0>         0.1339
     33 H2         -4.7060    1.0909    1.9875 H         1 <0>         0.1402
     34 H3         -5.2314   -0.6252   -1.8859 H         1 <0>         0.1403
     35 H4         -2.8627   -1.2927   -1.9150 H         1 <0>         0.1346
     36 H5          2.1439   -0.4849   -0.0333 H         1 <0>         0.1826
     37 H6          0.3297   -4.7146   -0.9164 H         1 <0>         0.1326
     38 H7          0.3478   -4.7238    0.8635 H         1 <0>         0.1330
     39 H8          0.8599   -7.2089   -0.0445 H         1 <0>         0.4230
     40 H9         -3.7266  -11.8552    0.9673 H         1 <0>         0.0820
     41 H10        -4.0591  -11.5067   -0.7487 H         1 <0>         0.0810
     42 H11        -3.4030  -13.9379   -0.2144 H         1 <0>         0.0724
     43 H12        -2.4397  -13.1413   -1.4832 H         1 <0>         0.0677
     44 H13        -1.6288  -13.1976    1.4558 H         1 <0>         0.0674
     45 H14        -1.0771  -14.4017    0.2678 H         1 <0>         0.0687
     46 H15         0.5369  -12.4836    0.6161 H         1 <0>         0.0746
     47 H16        -0.0016  -12.6793   -1.0705 H         1 <0>         0.0757
     48 H17         1.5904   -9.8979   -2.0861 H         1 <0>         0.4035
     49 H18         3.0542  -10.0004   -1.2677 H         1 <0>         0.4029
     50 O4         -1.1950    2.0715    0.0190 O.co2     1 <0>        -0.7431
@<TRIPOS>BOND
     1    1    6 ar
     2    1    2 ar
     3    1   32 1
     4    2    3 ar
     5    2   33 1
     6    3    4 ar
     7    3   31 1
     8    4    5 ar
     9    4   34 1
    10    5    6 ar
    11    5   35 1
    12    6    7 1
    13    7   11 1
    14    7    8 1
    15    8    9 2
    16    8   29 1
    17    9   10 1
    18    9   36 1
    19   10   11 2
    20   11   12 1
    21   12   13 1
    22   13   14 1
    23   13   37 1
    24   13   38 1
    25   14   15 2
    26   14   16 am
    27   16   17 1
    28   16   39 1
    29   17   21 1
    30   17   18 2
    31   18   19 1
    32   18   26 1
    33   19   25 1
    34   19   20 2
    35   20   21 1
    36   20   22 1
    37   22   23 1
    38   22   40 1
    39   22   41 1
    40   23   24 1
    41   23   42 1
    42   23   43 1
    43   24   25 1
    44   24   44 1
    45   24   45 1
    46   25   46 1
    47   25   47 1
    48   26   27 2
    49   26   28 am
    50   28   48 1
    51   28   49 1
    52   29   30 2
    53   29   50 1
@<TRIPOS>MOLECULE
ZINC05315933
   48    50     0     0     0
SMALL
USER_CHARGES

@<TRIPOS>ATOM
      1 C1          0.6894    1.9061    0.1064 C.ar      1 <0>        -0.1244
      2 C2          1.9556    2.4625    0.0502 C.ar      1 <0>        -0.1185
      3 C3          3.0681    1.6498   -0.0009 C.ar      1 <0>        -0.1099
      4 C4          2.9145    0.2591    0.0046 C.ar      1 <0>        -0.0500
      5 C5          1.6311   -0.2953    0.0621 C.ar      1 <0>        -0.1174
      6 C6          0.5289    0.5313    0.1123 C.ar      1 <0>        -0.1178
      7 C7          4.0956   -0.6152   -0.0501 C.2       1 <0>        -0.1113
      8 C8          3.9430   -1.9597   -0.0446 C.2       1 <0>        -0.1016
      9 C9          5.0759   -2.7982   -0.0971 C.2       1 <0>        -0.1604
     10 C10         4.9223   -4.1514   -0.0915 C.2       1 <0>         0.1205
     11 C11         6.0999   -5.0231   -0.1461 C.2       1 <0>         0.5846
     12 O1          6.6747   -5.3364    0.8825 O.2       1 <0>        -0.4961
     13 N1          6.5471   -5.4781   -1.3333 N.am      1 <0>        -0.5658
     14 N2          7.6064   -6.3939   -1.3786 N.2       1 <0>        -0.2998
     15 C12         7.9795   -6.9165   -2.5344 C.2       1 <0>         0.1855
     16 C13         7.3793   -6.4703   -3.8027 C.2       1 <0>         0.0369
     17 N3          7.9534   -6.8102   -4.9210 N.2       1 <0>        -0.2146
     18 N4          9.1197   -7.5795   -4.9273 N.pl3     1 <0>        -0.5435
     19 H1          9.6451   -7.6345   -5.7408 H         1 <0>         0.4195
     20 C14         9.5403   -8.2567   -3.8155 C.2       1 <0>         0.4628
     21 O2         10.4866   -9.2193   -3.9264 O.3       1 <0>        -0.6826
     22 C15         9.0127   -7.9592   -2.6004 C.2       1 <0>        -0.3057
     23 Cl1         9.5392   -8.7900   -1.1699 Cl        1 <0>        -0.0759
     24 N5          3.6434   -4.7086   -0.0338 N.am      1 <0>        -0.6546
     25 C16         3.4944   -6.0426    0.0873 C.2       1 <0>         0.5398
     26 O3          4.4691   -6.7509    0.2496 O.2       1 <0>        -0.4649
     27 C17         2.1460   -6.6444    0.0230 C.ar      1 <0>        -0.1312
     28 C18         1.0253   -5.8346   -0.1690 C.ar      1 <0>        -0.0878
     29 C19        -0.2304   -6.4028   -0.2286 C.ar      1 <0>        -0.1273
     30 C20        -0.3804   -7.7721   -0.0986 C.ar      1 <0>        -0.0921
     31 C21         0.7263   -8.5805    0.0919 C.ar      1 <0>        -0.1247
     32 C22         1.9881   -8.0258    0.1481 C.ar      1 <0>        -0.0532
     33 H2         -0.1779    2.5482    0.1504 H         1 <0>         0.1201
     34 H3          2.0723    3.5362    0.0460 H         1 <0>         0.1221
     35 H4          4.0553    2.0854   -0.0454 H         1 <0>         0.1250
     36 H5          1.5043   -1.3679    0.0664 H         1 <0>         0.1217
     37 H6         -0.4624    0.1050    0.1563 H         1 <0>         0.1220
     38 H7          5.0849   -0.1842   -0.0947 H         1 <0>         0.1260
     39 H8          2.9538   -2.3906    0.0000 H         1 <0>         0.1073
     40 H9          6.0652   -2.3673   -0.1417 H         1 <0>         0.1406
     41 H10         6.1356   -5.1714   -2.1564 H         1 <0>         0.3635
     42 H11         6.4796   -5.8728   -3.8055 H         1 <0>         0.1690
     43 H12         2.8622   -4.1356   -0.0810 H         1 <0>         0.4100
     44 H13         1.1409   -4.7656   -0.2703 H         1 <0>         0.1229
     45 H14        -1.0983   -5.7774   -0.3768 H         1 <0>         0.1300
     46 H15        -1.3656   -8.2119   -0.1457 H         1 <0>         0.1283
     47 H16         0.6023   -9.6486    0.1927 H         1 <0>         0.1324
     48 H17         2.8515   -8.6583    0.2928 H         1 <0>         0.1406
@<TRIPOS>BOND
     1    1    6 ar
     2    1    2 ar
     3    1   33 1
     4    2    3 ar
     5    2   34 1
     6    3    4 ar
     7    3   35 1
     8    4    5 ar
     9    4    7 1
    10    5    6 ar
    11    5   36 1
    12    6   37 1
    13    7    8 2
    14    7   38 1
    15    8    9 1
    16    8   39 1
    17    9   10 2
    18    9   40 1
    19   10   11 1
    20   10   24 1
    21   11   12 2
    22   11   13 am
    23   13   14 1
    24   13   41 1
    25   14   15 2
    26   15   22 1
    27   15   16 1
    28   16   17 2
    29   16   42 1
    30   17   18 1
    31   18   19 1
    32   18   20 1
    33   20   21 1
    34   20   22 2
    35   22   23 1
    36   24   25 am
    37   24   43 1
    38   25   26 2
    39   25   27 1
    40   27   32 ar
    41   27   28 ar
    42   28   29 ar
    43   28   44 1
    44   29   30 ar
    45   29   45 1
    46   30   31 ar
    47   30   46 1
    48   31   32 ar
    49   31   47 1
    50   32   48 1
@<TRIPOS>MOLECULE
ZINC50986478
   48    49     0     0     0
SMALL
USER_CHARGES

@<TRIPOS>ATOM
      1 C1         -0.5319    1.9924   -0.0543 C.3       1 <0>        -0.1123
      2 C2         -0.2798    0.5078   -0.1135 C.2       1 <0>         0.2076
      3 C3         -1.3598   -0.3854   -0.0838 C.2       1 <0>        -0.1417
      4 C4         -1.1236   -1.7197   -0.1380 C.2       1 <0>         0.1445
      5 N1          0.1658   -2.1623   -0.2205 N.pl3     1 <0>        -0.3998
      6 C5          0.7173   -3.4061   -0.2880 C.2       1 <0>         0.1452
      7 N2          2.0133   -3.3088   -0.3535 N.2       1 <0>        -0.4128
      8 C6          2.3741   -2.0084   -0.3325 C.2       1 <0>        -0.0759
      9 C7          1.1958   -1.2550   -0.2471 C.2       1 <0>         0.2550
     10 N3          0.9514    0.0558   -0.1982 N.2       1 <0>        -0.4393
     11 C8          3.7386   -1.4841   -0.3886 C.2       1 <0>         0.6119
     12 O1          3.9306   -0.2820   -0.3613 O.2       1 <0>        -0.5310
     13 N4          4.7834   -2.3316   -0.4704 N.am      1 <0>        -0.8485
     14 C9         -2.2676   -2.7002   -0.1072 C.3       1 <0>        -0.1373
     15 C10        -2.7719    0.1328    0.0080 C.3       1 <0>        -0.0497
     16 C11        -3.1104    0.4344    1.4693 C.3       1 <0>        -0.1421
     17 C12        -4.4671    1.0859    1.5466 C.2       1 <0>         0.3618
     18 O2         -4.5666    2.4240    1.6211 O.3       1 <0>        -0.6550
     19 C13        -5.5934    0.3179    1.5408 C.2       1 <0>        -0.4255
     20 C14        -6.8814    0.9366    1.4471 C.1       1 <0>         0.3172
     21 N5         -7.9032    1.4274    1.3728 N.1       1 <0>        -0.5405
     22 C15        -5.4856   -1.1455    1.6308 C.2       1 <0>         0.6007
     23 O3         -4.4032   -1.6648    1.8278 O.2       1 <0>        -0.5811
     24 N6         -6.5860   -1.9118    1.4951 N.am      1 <0>        -0.7418
     25 C16        -6.4786   -3.3701    1.5848 C.3       1 <0>         0.1416
     26 C17        -6.5415   -3.7968    3.0527 C.3       1 <0>        -0.1624
     27 C18        -7.6340   -4.0148    0.8164 C.3       1 <0>        -0.1603
     28 H1          0.4188    2.5242   -0.0932 H         1 <0>         0.0833
     29 H2         -1.1497    2.2902   -0.9015 H         1 <0>         0.0904
     30 H3         -1.0471    2.2367    0.8747 H         1 <0>         0.0987
     31 H4          0.1628   -4.3329   -0.2866 H         1 <0>         0.2163
     32 H5          4.6305   -3.2893   -0.4921 H         1 <0>         0.4053
     33 H6          5.6882   -1.9840   -0.5075 H         1 <0>         0.4012
     34 H7         -2.5288   -2.9858   -1.1261 H         1 <0>         0.0829
     35 H8         -1.9715   -3.5864    0.4540 H         1 <0>         0.0772
     36 H9         -3.1299   -2.2374    0.3728 H         1 <0>         0.1383
     37 H10        -2.8633    1.0449   -0.5818 H         1 <0>         0.0798
     38 H11        -3.4607   -0.6192   -0.3767 H         1 <0>         0.0841
     39 H12        -3.1206   -0.4948    2.0391 H         1 <0>         0.1293
     40 H13        -2.3601    1.1071    1.8847 H         1 <0>         0.0587
     41 H14        -7.4490   -1.4978    1.3380 H         1 <0>         0.3927
     42 H15        -5.5309   -3.6919    1.1531 H         1 <0>         0.0839
     43 H16        -5.7184   -3.3376    3.6001 H         1 <0>         0.0627
     44 H17        -7.4892   -3.4751    3.4844 H         1 <0>         0.0507
     45 H18        -6.4616   -4.8819    3.1194 H         1 <0>         0.0555
     46 H19        -7.5892   -3.7108   -0.2294 H         1 <0>         0.0591
     47 H20        -7.5541   -5.0998    0.8831 H         1 <0>         0.0651
     48 H21        -8.5817   -3.6930    1.2480 H         1 <0>         0.0562
@<TRIPOS>BOND
     1    1    2 1
     2    1   28 1
     3    1   29 1
     4    1   30 1
     5    2   10 2
     6    2    3 1
     7    3    4 2
     8    3   15 1
     9    4    5 1
    10    4   14 1
    11    5    9 1
    12    5    6 1
    13    6    7 2
    14    6   31 1
    15    7    8 1
    16    8    9 2
    17    8   11 1
    18    9   10 1
    19   11   12 2
    20   11   13 am
    21   13   32 1
    22   13   33 1
    23   14   34 1
    24   14   35 1
    25   14   36 1
    26   15   16 1
    27   15   37 1
    28   15   38 1
    29   16   17 1
    30   16   39 1
    31   16   40 1
    32   17   18 1
    33   17   19 2
    34   19   20 1
    35   19   22 1
    36   20   21 3
    37   22   23 2
    38   22   24 am
    39   24   25 1
    40   24   41 1
    41   25   26 1
    42   25   27 1
    43   25   42 1
    44   26   43 1
    45   26   44 1
    46   26   45 1
    47   27   46 1
    48   27   47 1
    49   27   48 1
@<TRIPOS>MOLECULE
ZINC64884280
   45    46     0     0     0
SMALL
USER_CHARGES

@<TRIPOS>ATOM
      1 C1         -0.0187    1.5258    0.0104 C.3       1 <0>        -0.1535
      2 C2          0.0021   -0.0041    0.0020 C.3       1 <0>        -0.1207
      3 C3         -1.4333   -0.5336    0.0129 C.3       1 <0>        -0.1351
      4 C4         -1.4126   -2.0635    0.0045 C.3       1 <0>         0.1353
      5 N1         -2.7870   -2.5706    0.0149 N.am      1 <0>        -0.7453
      6 C5         -3.0152   -3.8988    0.0099 C.2       1 <0>         0.7141
      7 O1         -2.0805   -4.6763   -0.0032 O.2       1 <0>        -0.5738
      8 N2         -4.2797   -4.3654    0.0195 N.am      1 <0>        -0.5286
      9 N3         -5.3567   -3.4695    0.0346 N.am      1 <0>        -0.5292
     10 C6         -6.6211   -3.9360    0.0441 C.2       1 <0>         0.5676
     11 O2         -6.8270   -5.1336    0.0397 O.2       1 <0>        -0.5217
     12 C7         -7.7600   -2.9888    0.0601 C.ar      1 <0>        -0.0765
     13 C8         -7.5149   -1.6069    0.0593 C.ar      1 <0>        -0.1734
     14 C9         -8.5447   -0.7163    0.0738 C.ar      1 <0>        -0.0067
     15 C10        -9.8683   -1.1787    0.0893 C.ar      1 <0>        -0.2218
     16 C11       -10.1310   -2.5738    0.0898 C.ar      1 <0>         0.2157
     17 C12        -9.0569   -3.4753    0.0699 C.ar      1 <0>        -0.0646
     18 N4        -11.4021   -2.9995    0.1042 N.2       1 <0>        -0.5522
     19 C13       -12.4052   -2.1351    0.1178 C.2       1 <0>         0.5038
     20 N5        -12.2099   -0.8060    0.1176 N.pl3     1 <0>        -0.4911
     21 C14       -10.9627   -0.2880    0.1041 C.2       1 <0>         0.5020
     22 O3        -10.7687    1.0424    0.1048 O.3       1 <0>        -0.6085
     23 C15       -13.3658    0.0940    0.1327 C.3       1 <0>         0.0883
     24 C16       -13.7511    0.4050    1.5804 C.3       1 <0>        -0.1552
     25 S1        -14.0092   -2.7332    0.1359 S.2       1 <0>        -0.7006
     26 H1          1.0039    1.9031    0.0027 H         1 <0>         0.0554
     27 H2         -0.5459    1.8868   -0.8726 H         1 <0>         0.0552
     28 H3         -0.5289    1.8773    0.9072 H         1 <0>         0.0552
     29 H4          0.5123   -0.3556   -0.8948 H         1 <0>         0.0656
     30 H5          0.5293   -0.3651    0.8851 H         1 <0>         0.0655
     31 H6         -1.9435   -0.1821    0.9097 H         1 <0>         0.0713
     32 H7         -1.9605   -0.1726   -0.8702 H         1 <0>         0.0713
     33 H8         -0.9024   -2.4150   -0.8923 H         1 <0>         0.0697
     34 H9         -0.8854   -2.4246    0.8875 H         1 <0>         0.0697
     35 H10        -3.5327   -1.9503    0.0253 H         1 <0>         0.3926
     36 H11        -4.4439   -5.3213    0.0159 H         1 <0>         0.4442
     37 H12        -5.1924   -2.5136    0.0381 H         1 <0>         0.4196
     38 H13        -6.4972   -1.2455    0.0475 H         1 <0>         0.1187
     39 H14        -8.3424    0.3446    0.0738 H         1 <0>         0.1373
     40 H15        -9.2393   -4.5397    0.0659 H         1 <0>         0.1491
     41 H16       -13.1118    1.0202   -0.3827 H         1 <0>         0.0868
     42 H17       -14.2052   -0.3843   -0.3720 H         1 <0>         0.1166
     43 H18       -14.6111    1.0746    1.5916 H         1 <0>         0.0689
     44 H19       -14.0050   -0.5212    2.0958 H         1 <0>         0.0678
     45 H20       -12.9116    0.8833    2.0850 H         1 <0>         0.0509
@<TRIPOS>BOND
     1    1    2 1
     2    1   26 1
     3    1   27 1
     4    1   28 1
     5    2    3 1
     6    2   29 1
     7    2   30 1
     8    3    4 1
     9    3   31 1
    10    3   32 1
    11    4    5 1
    12    4   33 1
    13    4   34 1
    14    5    6 am
    15    5   35 1
    16    6    7 2
    17    6    8 am
    18    8    9 1
    19    8   36 1
    20    9   10 am
    21    9   37 1
    22   10   11 2
    23   10   12 1
    24   12   17 ar
    25   12   13 ar
    26   13   14 ar
    27   13   38 1
    28   14   15 ar
    29   14   39 1
    30   15   21 2
    31   15   16 ar
    32   16   17 ar
    33   16   18 2
    34   17   40 1
    35   18   19 1
    36   19   20 1
    37   19   25 2
    38   20   21 1
    39   20   23 1
    40   21   22 1
    41   23   24 1
    42   23   41 1
    43   23   42 1
    44   24   43 1
    45   24   44 1
    46   24   45 1
@<TRIPOS>MOLECULE
ZINC09547705
   49    52     0     0     0
SMALL
USER_CHARGES
2-bromo-N-(2-oxo-1,3-dihydrobenzoimidazol-5-yl)-5-(tetrahydrofuran-2-ylmethylsulfamoyl)benzamide
@<TRIPOS>ATOM
      1 C1         -3.2495   -3.1723   -6.9427 C.ar      1 <0>        -0.1286
      2 C2         -2.5534   -3.9019   -7.8857 C.ar      1 <0>        -0.0817
      3 C3         -2.0983   -5.1748   -7.5780 C.ar      1 <0>         0.0770
      4 C4         -2.3442   -5.7178   -6.3147 C.ar      1 <0>         0.1115
      5 C5         -3.0386   -4.9810   -5.3687 C.ar      1 <0>        -0.1065
      6 C6         -3.4963   -3.7100   -5.6848 C.ar      1 <0>         0.1577
      7 N1         -4.2032   -2.9652   -4.7330 N.am      1 <0>        -0.6654
      8 C7         -5.0097   -3.5896   -3.8520 C.2       1 <0>         0.5514
      9 O1         -5.1986   -4.7871   -3.9438 O.2       1 <0>        -0.4795
     10 C8         -5.6642   -2.8189   -2.7746 C.ar      1 <0>        -0.1348
     11 C9         -5.4542   -1.4424   -2.6699 C.ar      1 <0>         0.0168
     12 C10        -6.0637   -0.7299   -1.6586 C.ar      1 <0>        -0.6757
     13 C11        -6.8915   -1.3737   -0.7552 C.ar      1 <0>         0.0182
     14 C12        -7.1093   -2.7356   -0.8558 C.ar      1 <0>        -0.1157
     15 C13        -6.5006   -3.4628   -1.8599 C.ar      1 <0>         0.0086
     16 Br1        -6.7984   -5.3252   -1.9956 Br        1 <0>         0.0142
     17 S1         -5.7936    1.0058   -1.5205 S.o2      1 <0>         2.6957
     18 O2         -6.9125    1.5367   -0.8238 O.2       1 <0>        -0.9465
     19 O3         -5.4137    1.4617   -2.8116 O.2       1 <0>        -0.9482
     20 N2         -4.4786    1.2199   -0.5370 N.pl3     1 <0>        -1.1095
     21 C14        -3.1592    0.7486   -0.9651 C.3       1 <0>         0.1152
     22 C15        -2.0807    1.3820   -0.0839 C.3       1 <0>         0.0693
     23 H1         -2.1884    2.4667   -0.0885 H         1 <0>         0.0821
     24 C16        -0.6835    0.9920   -0.6039 C.3       1 <0>        -0.1519
     25 C17        -0.0174    0.2777    0.5972 C.3       1 <0>        -0.1567
     26 C18        -0.8510    0.8050    1.7927 C.3       1 <0>         0.0456
     27 O4         -2.1915    0.8825    1.2594 O.3       1 <0>        -0.3714
     28 N3         -1.7746   -6.9889   -6.3050 N.am      1 <0>        -0.6402
     29 H2         -1.7839   -7.6092   -5.5593 H         1 <0>         0.4370
     30 C19        -1.2081   -7.2099   -7.5061 C.2       1 <0>         0.6851
     31 O5         -0.6234   -8.2273   -7.8284 O.2       1 <0>        -0.5533
     32 N4         -1.3860   -6.1347   -8.2966 N.am      1 <0>        -0.6410
     33 H3         -1.0726   -6.0434   -9.2100 H         1 <0>         0.4367
     34 H4         -3.6038   -2.1808   -7.1832 H         1 <0>         0.1406
     35 H5         -2.3634   -3.4813   -8.8621 H         1 <0>         0.1395
     36 H6         -3.2264   -5.3965   -4.3896 H         1 <0>         0.1452
     37 H7         -4.1124   -1.9998   -4.7076 H         1 <0>         0.4123
     38 H8         -4.8124   -0.9376   -3.3767 H         1 <0>         0.1504
     39 H9         -7.3693   -0.8098    0.0323 H         1 <0>         0.1582
     40 H10        -7.7564   -3.2317   -0.1476 H         1 <0>         0.1547
     41 H11        -4.5819    1.6575    0.3225 H         1 <0>         0.4268
     42 H12        -2.9918    1.0317   -2.0043 H         1 <0>         0.0949
     43 H13        -3.1133   -0.3365   -0.8722 H         1 <0>         0.0744
     44 H14        -0.1174    1.8815   -0.8806 H         1 <0>         0.0835
     45 H15        -0.7680    0.3132   -1.4525 H         1 <0>         0.0831
     46 H16        -0.1096   -0.8046    0.5060 H         1 <0>         0.0786
     47 H17         1.0282    0.5705    0.6928 H         1 <0>         0.0833
     48 H18        -0.8093    0.1058    2.6279 H         1 <0>         0.0953
     49 H19        -0.5020    1.7912    2.0987 H         1 <0>         0.0639
@<TRIPOS>BOND
     1    1    6 ar
     2    1    2 ar
     3    1   34 1
     4    2    3 ar
     5    2   35 1
     6    3   32 1
     7    3    4 ar
     8    4    5 ar
     9    4   28 1
    10    5    6 ar
    11    5   36 1
    12    6    7 1
    13    7    8 am
    14    7   37 1
    15    8    9 2
    16    8   10 1
    17   10   15 ar
    18   10   11 ar
    19   11   12 ar
    20   11   38 1
    21   12   13 ar
    22   12   17 1
    23   13   14 ar
    24   13   39 1
    25   14   15 ar
    26   14   40 1
    27   15   16 1
    28   17   18 2
    29   17   19 2
    30   17   20 1
    31   20   21 1
    32   20   41 1
    33   21   22 1
    34   21   42 1
    35   21   43 1
    36   22   23 1
    37   22   27 1
    38   22   24 1
    39   24   25 1
    40   24   44 1
    41   24   45 1
    42   25   26 1
    43   25   46 1
    44   25   47 1
    45   26   27 1
    46   26   48 1
    47   26   49 1
    48   28   29 1
    49   28   30 am
    50   30   31 2
    51   30   32 am
    52   32   33 1
@<TRIPOS>MOLECULE
ZINC18749772
   49    51     0     0     0
SMALL
USER_CHARGES
[2-oxo-2-[[3-(pyrrolidin-2-ylideneamino)sulfonylphenyl]amino]ethyl] 2-amino-4-fluoro-benzoate
@<TRIPOS>ATOM
      1 C1         -0.0707    3.8226   -0.0210 C.ar      1 <0>        -0.1196
      2 C2          1.1387    3.1552   -0.0316 C.ar      1 <0>        -0.0635
      3 C3          1.1638    1.7670   -0.0423 C.ar      1 <0>         0.1229
      4 C4         -0.0280    1.0538   -0.0421 C.ar      1 <0>        -0.0408
      5 C5         -1.2338    1.7269   -0.0367 C.ar      1 <0>        -0.6205
      6 C6         -1.2554    3.1097   -0.0213 C.ar      1 <0>        -0.0282
      7 S1         -2.7463    0.8231   -0.0439 S.o2      1 <0>         2.6551
      8 O1         -3.7337    1.6882   -0.5878 O.2       1 <0>        -0.9765
      9 O2         -2.4561   -0.4498   -0.6049 O.2       1 <0>        -0.9803
     10 N1         -3.1666    0.5594    1.5360 N.2       1 <0>        -1.0172
     11 C7         -4.2491   -0.0898    1.8175 C.2       1 <0>         0.5360
     12 C8         -5.2163   -0.6526    0.7992 C.3       1 <0>        -0.1908
     13 C9         -6.0654   -1.6674    1.6016 C.3       1 <0>        -0.1262
     14 C10        -5.9596   -1.1100    3.0378 C.3       1 <0>         0.0955
     15 N2         -4.6952   -0.3658    3.0803 N.pl3     1 <0>        -0.6847
     16 N3          2.3872    1.0880   -0.0535 N.am      1 <0>        -0.6687
     17 C11         3.4364    1.6008   -0.7264 C.2       1 <0>         0.5171
     18 O3          3.3447    2.6886   -1.2549 O.2       1 <0>        -0.4939
     19 C12         4.7234    0.8226   -0.8220 C.3       1 <0>         0.0526
     20 O4          5.6923    1.5823   -1.5917 O.3       1 <0>        -0.3268
     21 C13         6.9051    1.0225   -1.7718 C.2       1 <0>         0.5268
     22 O5          7.1462   -0.0706   -1.2984 O.2       1 <0>        -0.5169
     23 C14         7.9373    1.7350   -2.5416 C.ar      1 <0>        -0.2252
     24 C15         7.7065    3.0405   -2.9873 C.ar      1 <0>         0.0166
     25 C16         8.6752    3.7021   -3.7068 C.ar      1 <0>        -0.2222
     26 C17         9.8837    3.0798   -3.9937 C.ar      1 <0>         0.1873
     27 C18        10.1263    1.7898   -3.5599 C.ar      1 <0>        -0.2461
     28 C19         9.1624    1.1098   -2.8279 C.ar      1 <0>         0.3095
     29 N4          9.4056   -0.1837   -2.3860 N.pl3     1 <0>        -0.8530
     30 F1         10.8272    3.7390   -4.7013 F         1 <0>        -0.1291
     31 H1         -0.0909    4.9024   -0.0127 H         1 <0>         0.1409
     32 H2          2.0637    3.7127   -0.0321 H         1 <0>         0.1494
     33 H3         -0.0118   -0.0261   -0.0508 H         1 <0>         0.1446
     34 H4         -2.1996    3.6338   -0.0137 H         1 <0>         0.1436
     35 H5         -5.8463    0.1392    0.3938 H         1 <0>         0.1268
     36 H6         -4.6758   -1.1582   -0.0009 H         1 <0>         0.1158
     37 H7         -5.6413   -2.6696    1.5411 H         1 <0>         0.0916
     38 H8         -7.0998   -1.6628    1.2578 H         1 <0>         0.1023
     39 H9         -5.9401   -1.9274    3.7586 H         1 <0>         0.0928
     40 H10        -6.7963   -0.4435    3.2472 H         1 <0>         0.0841
     41 H11        -4.2373   -0.1052    3.8948 H         1 <0>         0.4251
     42 H12         2.4802    0.2481    0.4229 H         1 <0>         0.4168
     43 H13         5.1148    0.6434    0.1794 H         1 <0>         0.1093
     44 H14         4.5354   -0.1313   -1.3147 H         1 <0>         0.1098
     45 H15         6.7690    3.5291   -2.7668 H         1 <0>         0.1507
     46 H16         8.4952    4.7102   -4.0498 H         1 <0>         0.1438
     47 H17        11.0681    1.3124   -3.7866 H         1 <0>         0.1451
     48 H18         8.6640   -0.7840   -2.2112 H         1 <0>         0.4157
     49 H19        10.3172   -0.4871   -2.2521 H         1 <0>         0.4024
@<TRIPOS>BOND
     1    1    6 ar
     2    1    2 ar
     3    1   31 1
     4    2    3 ar
     5    2   32 1
     6    3    4 ar
     7    3   16 1
     8    4    5 ar
     9    4   33 1
    10    5    6 ar
    11    5    7 1
    12    6   34 1
    13    7    8 2
    14    7    9 2
    15    7   10 1
    16   10   11 2
    17   11   15 1
    18   11   12 1
    19   12   13 1
    20   12   35 1
    21   12   36 1
    22   13   14 1
    23   13   37 1
    24   13   38 1
    25   14   15 1
    26   14   39 1
    27   14   40 1
    28   15   41 1
    29   16   17 am
    30   16   42 1
    31   17   18 2
    32   17   19 1
    33   19   20 1
    34   19   43 1
    35   19   44 1
    36   20   21 1
    37   21   22 2
    38   21   23 1
    39   23   28 ar
    40   23   24 ar
    41   24   25 ar
    42   24   45 1
    43   25   26 ar
    44   25   46 1
    45   26   27 ar
    46   26   30 1
    47   27   28 ar
    48   27   47 1
    49   28   29 1
    50   29   48 1
    51   29   49 1
@<TRIPOS>MOLECULE
ZINC33271849
   55    58     0     0     0
SMALL
USER_CHARGES
5-[[5,7-dimethyl-6-(p-tolylmethyl)pyrazolo[1,5-a]pyrimidine-3-carbonyl]amino]-2-(methylamino)thiazole-4-carboxamide
@<TRIPOS>ATOM
      1 C1        -13.7026   -2.1110    5.5065 C.3       1 <0>        -0.1207
      2 C2        -13.2806   -1.8419    4.0851 C.ar      1 <0>        -0.0834
      3 C3        -13.7080   -0.6950    3.4426 C.ar      1 <0>        -0.1164
      4 C4        -13.3212   -0.4484    2.1385 C.ar      1 <0>        -0.1174
      5 C5        -12.5063   -1.3481    1.4774 C.ar      1 <0>        -0.0890
      6 C6        -12.0827   -2.4974    2.1183 C.ar      1 <0>        -0.1139
      7 C7        -12.4663   -2.7421    3.4236 C.ar      1 <0>        -0.1161
      8 C8        -12.0845   -1.0792    0.0558 C.3       1 <0>        -0.0278
      9 C9        -10.7966   -0.2968    0.0534 C.2       1 <0>        -0.1814
     10 C10        -9.5654   -0.9624    0.0430 C.2       1 <0>         0.2312
     11 N1         -8.4441   -0.2754    0.0413 N.2       1 <0>        -0.4519
     12 C11        -8.4590    1.0582    0.0495 C.2       1 <0>         0.3403
     13 C12        -7.4311    2.0209    0.0500 C.2       1 <0>        -0.3016
     14 C13        -8.0522    3.2829    0.0670 C.2       1 <0>         0.1359
     15 N2         -9.3481    3.1127    0.0664 N.2       1 <0>        -0.3054
     16 N3         -9.6401    1.7445    0.0597 N.pl3     1 <0>        -0.3040
     17 C14       -10.8193    1.0606    0.0617 C.2       1 <0>         0.2068
     18 C15       -12.1313    1.8018    0.0729 C.3       1 <0>        -0.1372
     19 C16        -5.9895    1.7580    0.0411 C.2       1 <0>         0.5929
     20 O1         -5.5800    0.6118    0.0320 O.2       1 <0>        -0.5003
     21 N4         -5.1172    2.7854    0.0428 N.am      1 <0>        -0.6183
     22 C17        -3.7537    2.5367    0.0343 C.2       1 <0>         0.1123
     23 C18        -2.6871    3.4323    0.0343 C.2       1 <0>        -0.0414
     24 N5         -1.4424    2.9381    0.0307 N.2       1 <0>        -0.5438
     25 C19        -1.2203    1.6422    0.0168 C.2       1 <0>         0.3276
     26 S1         -2.8787    0.9779    0.0210 S.3       1 <0>         0.1136
     27 N6         -0.0111    0.9658    0.0074 N.pl3     1 <0>        -0.6960
     28 C20         1.2475    1.7155   -0.0006 C.3       1 <0>         0.1050
     29 C21        -2.9208    4.8779    0.0442 C.2       1 <0>         0.6084
     30 O2         -4.0588    5.3105    0.0527 O.2       1 <0>        -0.5737
     31 N7         -1.8761    5.7294    0.0441 N.am      1 <0>        -0.8580
     32 C22        -9.5247   -2.4688    0.0332 C.3       1 <0>        -0.1256
     33 H1        -14.3430   -1.2897    5.8606 H         1 <0>         0.0662
     34 H2        -12.8108   -2.1826    6.1464 H         1 <0>         0.0710
     35 H3        -14.2620   -3.0571    5.5500 H         1 <0>         0.0720
     36 H4        -14.3444    0.0081    3.9592 H         1 <0>         0.1235
     37 H5        -13.6555    0.4475    1.6364 H         1 <0>         0.1257
     38 H6        -11.4496   -3.2025    1.6003 H         1 <0>         0.1285
     39 H7        -12.1327   -3.6383    3.9255 H         1 <0>         0.1243
     40 H8        -11.9343   -2.0342   -0.4690 H         1 <0>         0.0996
     41 H9        -12.8669   -0.4991   -0.4553 H         1 <0>         0.0940
     42 H10        -7.5426    4.2350    0.0760 H         1 <0>         0.2077
     43 H11       -11.9404    2.8851    0.0785 H         1 <0>         0.0951
     44 H12       -12.7010    1.5252    0.9723 H         1 <0>         0.1041
     45 H13       -12.7102    1.5361   -0.8239 H         1 <0>         0.1022
     46 H14        -5.4874    3.8212    0.0509 H         1 <0>         0.4572
     47 H15         0.0039   -0.1341    0.0059 H         1 <0>         0.4439
     48 H16         2.0932    1.0121   -0.0075 H         1 <0>         0.0791
     49 H17         1.3035    2.3475    0.8980 H         1 <0>         0.0572
     50 H18         1.2908    2.3497   -0.8983 H         1 <0>         0.0571
     51 H19        -2.0516    6.8153    0.0515 H         1 <0>         0.4218
     52 H20        -0.8479    5.3385    0.0366 H         1 <0>         0.4320
     53 H21        -8.4781   -2.8073    0.0258 H         1 <0>         0.0934
     54 H22       -10.0376   -2.8436   -0.8648 H         1 <0>         0.0962
     55 H23       -10.0287   -2.8550    0.9314 H         1 <0>         0.0975
@<TRIPOS>BOND
     1    1    2 1
     2    1   33 1
     3    1   34 1
     4    1   35 1
     5    2    7 ar
     6    2    3 ar
     7    3    4 ar
     8    3   36 1
     9    4    5 ar
    10    4   37 1
    11    5    6 ar
    12    5    8 1
    13    6    7 ar
    14    6   38 1
    15    7   39 1
    16    8    9 1
    17    8   40 1
    18    8   41 1
    19    9   17 2
    20    9   10 1
    21   10   11 2
    22   10   32 1
    23   11   12 1
    24   12   16 1
    25   12   13 2
    26   13   14 1
    27   13   19 1
    28   14   15 2
    29   14   42 1
    30   15   16 1
    31   16   17 1
    32   17   18 1
    33   18   43 1
    34   18   44 1
    35   18   45 1
    36   19   20 2
    37   19   21 am
    38   21   22 1
    39   21   46 1
    40   22   26 1
    41   22   23 2
    42   23   24 1
    43   23   29 1
    44   24   25 2
    45   25   26 1
    46   25   27 1
    47   27   28 1
    48   27   47 1
    49   28   48 1
    50   28   49 1
    51   28   50 1
    52   29   30 2
    53   29   31 am
    54   31   51 1
    55   31   52 1
    56   32   53 1
    57   32   54 1
    58   32   55 1
@<TRIPOS>MOLECULE
ZINC39363060
   57    60     0     0     0
SMALL
USER_CHARGES

@<TRIPOS>ATOM
      1 C1          1.2312    1.2275   -0.1596 C.3       1 <0>        -0.1157
      2 C2          0.5959   -0.1366   -0.0786 C.ar      1 <0>        -0.0696
      3 C3          0.0036   -0.6904   -1.1990 C.ar      1 <0>        -0.1323
      4 C4         -0.5799   -1.9419   -1.1290 C.ar      1 <0>        -0.0959
      5 C5         -0.5729   -2.6432    0.0610 C.ar      1 <0>        -0.1205
      6 C6          0.0209   -2.0901    1.1876 C.ar      1 <0>         0.1475
      7 C7          0.6109   -0.8349    1.1126 C.ar      1 <0>        -0.1269
      8 N1          0.0293   -2.7977    2.3947 N.am      1 <0>        -0.6612
      9 C8          0.1309   -2.1348    3.5638 C.2       1 <0>         0.5343
     10 O1          0.1134   -0.9221    3.5768 O.2       1 <0>        -0.4976
     11 C9          0.2663   -2.9003    4.8548 C.3       1 <0>        -0.1525
     12 S1          0.3808   -1.7346    6.2399 S.3       1 <0>         0.0783
     13 C10         0.5325   -2.7703    7.6573 C.2       1 <0>         0.2557
     14 N2          0.5536   -4.0595    7.6115 N.2       1 <0>        -0.2884
     15 N3          0.6834   -4.6161    8.8897 N.pl3     1 <0>        -0.6533
     16 C11         0.7482   -3.4814    9.8269 C.3       1 <0>         0.3779
     17 H1         -0.0861   -3.5159   10.5275 H         1 <0>         0.0812
     18 N4          0.6495   -2.2975    8.9566 N.pl3     1 <0>        -0.5763
     19 C12         0.6675   -0.9594    9.3606 C.ar      1 <0>         0.1726
     20 C13        -0.2371   -0.5079   10.3133 C.ar      1 <0>        -0.1166
     21 C14        -0.2170    0.8146   10.7105 C.ar      1 <0>        -0.0899
     22 C15         0.7031    1.6898   10.1603 C.ar      1 <0>        -0.0389
     23 C16         1.6054    1.2428    9.2110 C.ar      1 <0>        -0.0861
     24 C17         1.5937   -0.0799    8.8142 C.ar      1 <0>        -0.1113
     25 Cl1         0.7250    3.3517   10.6616 Cl        1 <0>        -0.0613
     26 C18         2.0801   -3.4824   10.5800 C.3       1 <0>        -0.1231
     27 C19         2.2010   -4.7507   11.3849 C.2       1 <0>         0.2050
     28 N5          1.6416   -4.8299   12.6312 N.am      1 <0>        -0.6346
     29 C20         1.7436   -5.9577   13.3577 C.2       1 <0>         0.7014
     30 O2          1.2390   -6.0064   14.4628 O.2       1 <0>        -0.5344
     31 N6          2.3958   -7.0330   12.8781 N.am      1 <0>        -0.6589
     32 C21         2.9608   -6.9952   11.6544 C.2       1 <0>         0.5500
     33 O3          3.5512   -7.9676   11.2198 O.2       1 <0>        -0.5074
     34 C22         2.8570   -5.8162   10.8775 C.2       1 <0>        -0.2842
     35 C23        -1.2096   -4.0070    0.1366 C.3       1 <0>        -0.1160
     36 H2          2.2785    1.1243   -0.4436 H         1 <0>         0.0715
     37 H3          0.7099    1.8274   -0.9056 H         1 <0>         0.0678
     38 H4          1.1647    1.7175    0.8118 H         1 <0>         0.0688
     39 H5         -0.0035   -0.1439   -2.1306 H         1 <0>         0.1237
     40 H6         -1.0420   -2.3714   -2.0056 H         1 <0>         0.1269
     41 H7          1.0772   -0.4037    1.9861 H         1 <0>         0.1459
     42 H8         -0.0380   -3.7653    2.3901 H         1 <0>         0.4142
     43 H9         -0.6050   -3.5411    4.9903 H         1 <0>         0.1276
     44 H10         1.1667   -3.5137    4.8208 H         1 <0>         0.1295
     45 H11         0.7225   -5.5592    9.1132 H         1 <0>         0.4487
     46 H12        -0.9555   -1.1903   10.7427 H         1 <0>         0.1348
     47 H13        -0.9202    1.1663   11.4509 H         1 <0>         0.1408
     48 H14         2.3221    1.9281    8.7831 H         1 <0>         0.1422
     49 H15         2.3010   -0.4292    8.0766 H         1 <0>         0.1403
     50 H16         2.9014   -3.4258    9.8656 H         1 <0>         0.1141
     51 H17         2.1201   -2.6225   11.2486 H         1 <0>         0.1043
     52 H18         2.4599   -7.8382   13.4151 H         1 <0>         0.4334
     53 H19         3.2997   -5.7685    9.8935 H         1 <0>         0.1722
     54 H20         1.1674   -4.0656   12.9944 H         1 <0>         0.4354
     55 H21        -0.4678   -4.7682   -0.1053 H         1 <0>         0.0719
     56 H22        -1.5881   -4.1759    1.1447 H         1 <0>         0.0616
     57 H23        -2.0333   -4.0634   -0.5751 H         1 <0>         0.0731
@<TRIPOS>BOND
     1    1    2 1
     2    1   36 1
     3    1   37 1
     4    1   38 1
     5    2    7 ar
     6    2    3 ar
     7    3    4 ar
     8    3   39 1
     9    4    5 ar
    10    4   40 1
    11    5    6 ar
    12    5   35 1
    13    6    7 ar
    14    6    8 1
    15    7   41 1
    16    8    9 am
    17    8   42 1
    18    9   10 2
    19    9   11 1
    20   11   12 1
    21   11   43 1
    22   11   44 1
    23   12   13 1
    24   13   18 1
    25   13   14 2
    26   14   15 1
    27   15   16 1
    28   15   45 1
    29   16   17 1
    30   16   18 1
    31   16   26 1
    32   18   19 1
    33   19   24 ar
    34   19   20 ar
    35   20   21 ar
    36   20   46 1
    37   21   22 ar
    38   21   47 1
    39   22   23 ar
    40   22   25 1
    41   23   24 ar
    42   23   48 1
    43   24   49 1
    44   26   50 1
    45   26   51 1
    46   26   27 1
    47   27   34 2
    48   27   28 1
    49   28   29 am
    50   28   54 1
    51   29   30 2
    52   29   31 am
    53   31   52 1
    54   31   32 am
    55   32   33 2
    56   32   34 1
    57   34   53 1
    58   35   55 1
    59   35   56 1
    60   35   57 1
@<TRIPOS>MOLECULE
ZINC44028889
   47    49     0     0     0
SMALL
USER_CHARGES

@<TRIPOS>ATOM
      1 C1         -0.5318    1.2332   -1.6665 C.3       1 <0>        -0.0878
      2 C2         -0.3544   -0.2045   -1.2508 C.2       1 <0>         0.0776
      3 C3         -1.3079   -0.9992   -0.7346 C.2       1 <0>        -0.3017
      4 C4         -0.7340   -2.2664   -0.4829 C.2       1 <0>         0.3058
      5 N1          0.5237   -2.2160   -0.8423 N.2       1 <0>        -0.2266
      6 O1          0.7815   -0.9145   -1.3375 O.3       1 <0>        -0.1223
      7 N2         -1.3892   -3.3706    0.0521 N.pl3     1 <0>        -0.9111
      8 C5         -0.7250   -4.6761    0.0756 C.3       1 <0>         0.3024
      9 H1         -0.6059   -5.0048    1.1080 H         1 <0>         0.1465
     10 C6          0.6510   -4.5608   -0.5855 C.3       1 <0>         0.0908
     11 H2          1.1623   -5.5220   -0.5323 H         1 <0>         0.0879
     12 C7          0.4720   -4.1567   -2.0521 C.3       1 <0>         0.0670
     13 H3          0.0053   -3.1731   -2.1049 H         1 <0>         0.1035
     14 C8         -0.4231   -5.1865   -2.7484 C.3       1 <0>         0.0625
     15 H4          0.0666   -6.1603   -2.7389 H         1 <0>         0.0594
     16 C9         -1.7576   -5.2776   -2.0037 C.3       1 <0>        -0.0266
     17 H5         -2.2653   -4.3141   -2.0484 H         1 <0>         0.0731
     18 O2         -1.5173   -5.6269   -0.6388 O.3       1 <0>        -0.3259
     19 C10        -2.6215   -6.3313   -2.6477 C.2       1 <0>         0.5145
     20 O3         -2.8755   -7.3617   -2.0475 O.co2     1 <0>        -0.6626
     21 O4         -3.0663   -6.1533   -3.7688 O.co2     1 <0>        -0.6774
     22 O5         -0.6552   -4.7818   -4.0991 O.3       1 <0>        -0.5657
     23 O6          1.7471   -4.1161   -2.6959 O.3       1 <0>        -0.5581
     24 O7          1.4253   -3.5698    0.0931 O.3       1 <0>        -0.5106
     25 S1         -2.9202   -3.2094    0.6625 S.o2      1 <0>         2.6903
     26 O8         -3.1056   -4.2774    1.5813 O.2       1 <0>        -0.9371
     27 O9         -3.0660   -1.8469    1.0388 O.2       1 <0>        -0.9508
     28 C11        -4.0429   -3.4878   -0.6666 C.ar      1 <0>        -0.7382
     29 C12        -4.4251   -2.4357   -1.4786 C.ar      1 <0>         0.0226
     30 C13        -5.3049   -2.6504   -2.5213 C.ar      1 <0>        -0.2210
     31 C14        -5.8061   -3.9249   -2.7538 C.ar      1 <0>         0.2801
     32 C15        -5.4202   -4.9795   -1.9361 C.ar      1 <0>        -0.1830
     33 C16        -4.5356   -4.7589   -0.8987 C.ar      1 <0>         0.0508
     34 N3         -6.6965   -4.1455   -3.8071 N.pl3     1 <0>        -0.8636
     35 H6          0.4115    1.6186   -2.0534 H         1 <0>         0.0808
     36 H7         -1.2952    1.2956   -2.4420 H         1 <0>         0.0915
     37 H8         -0.8400    1.8252   -0.8047 H         1 <0>         0.0915
     38 H9         -2.3334   -0.7185   -0.5448 H         1 <0>         0.1720
     39 H10        -1.2158   -5.3893   -4.6008 H         1 <0>         0.3965
     40 H11         1.7087   -3.8665   -3.6293 H         1 <0>         0.3845
     41 H12         2.3111   -3.4437   -0.2736 H         1 <0>         0.3897
     42 H13        -4.0353   -1.4450   -1.2971 H         1 <0>         0.1304
     43 H14        -5.6032   -1.8283   -3.1549 H         1 <0>         0.1249
     44 H15        -5.8083   -5.9715   -2.1139 H         1 <0>         0.1296
     45 H16        -4.2317   -5.5791   -0.2653 H         1 <0>         0.1438
     46 H17        -6.9655   -3.4083   -4.3772 H         1 <0>         0.3975
     47 H18        -7.0458   -5.0359   -3.9684 H         1 <0>         0.4027
@<TRIPOS>BOND
     1    1    2 1
     2    1   35 1
     3    1   36 1
     4    1   37 1
     5    2    6 1
     6    2    3 2
     7    3    4 1
     8    3   38 1
     9    4    5 2
    10    4    7 1
    11    5    6 1
    12    7    8 1
    13    7   25 1
    14    8    9 1
    15    8   18 1
    16    8   10 1
    17   10   11 1
    18   10   12 1
    19   10   24 1
    20   12   13 1
    21   12   14 1
    22   12   23 1
    23   14   15 1
    24   14   16 1
    25   14   22 1
    26   16   17 1
    27   16   18 1
    28   16   19 1
    29   19   20 2
    30   19   21 1
    31   22   39 1
    32   23   40 1
    33   24   41 1
    34   25   26 2
    35   25   27 2
    36   25   28 1
    37   28   33 ar
    38   28   29 ar
    39   29   30 ar
    40   29   42 1
    41   30   31 ar
    42   30   43 1
    43   31   32 ar
    44   31   34 1
    45   32   33 ar
    46   32   44 1
    47   33   45 1
    48   34   46 1
    49   34   47 1
@<TRIPOS>MOLECULE
ZINC09156455
   49    52     0     0     0
SMALL
USER_CHARGES
4-chloro-N-(2-oxo-1,3-dihydrobenzoimidazol-5-yl)-3-(tetrahydrofuran-2-ylmethylsulfamoyl)benzamide
@<TRIPOS>ATOM
      1 C1          1.1431    3.1586    0.0241 C.ar      1 <0>        -0.0204
      2 C2         -0.0733    3.8081    0.0429 C.ar      1 <0>        -0.1296
      3 C3         -1.2467    3.0915   -0.1236 C.ar      1 <0>         0.0714
      4 C4         -1.2062    1.7199   -0.3141 C.ar      1 <0>        -0.6775
      5 C5          0.0035    1.0587   -0.3295 C.ar      1 <0>         0.0546
      6 C6          1.1901    1.7758   -0.1627 C.ar      1 <0>        -0.1502
      7 C7          2.4902    1.0740   -0.1844 C.2       1 <0>         0.5630
      8 O1          2.5283   -0.1301   -0.3476 O.2       1 <0>        -0.4989
      9 N1          3.6338    1.7688   -0.0231 N.am      1 <0>        -0.6656
     10 C8          4.8566    1.0930    0.0673 C.ar      1 <0>         0.1569
     11 C9          4.9152   -0.1576    0.6724 C.ar      1 <0>        -0.1058
     12 C10         6.1167   -0.8312    0.7599 C.ar      1 <0>        -0.0807
     13 C11         7.2717   -0.2552    0.2524 C.ar      1 <0>         0.0790
     14 C12         7.2173    1.0031   -0.3508 C.ar      1 <0>         0.1101
     15 C13         6.0082    1.6747   -0.4419 C.ar      1 <0>        -0.1307
     16 N2          8.5138    1.3122   -0.7554 N.am      1 <0>        -0.6409
     17 H1          8.7886    2.1258   -1.2065 H         1 <0>         0.4365
     18 C14         9.3205    0.2898   -0.4145 C.2       1 <0>         0.6851
     19 O2         10.5180    0.2417   -0.6254 O.2       1 <0>        -0.5525
     20 N3          8.6016   -0.6715    0.1952 N.am      1 <0>        -0.6406
     21 H2          8.9491   -1.5104    0.5362 H         1 <0>         0.4374
     22 S1         -2.7041    0.8178   -0.5310 S.o2      1 <0>         2.6918
     23 O3         -3.4548    1.5088   -1.5200 O.2       1 <0>        -0.9346
     24 O4         -2.3390   -0.5486   -0.6684 O.2       1 <0>        -0.9441
     25 N4         -3.5582    0.9397    0.8825 N.pl3     1 <0>        -1.1061
     26 C15        -4.0596    2.2431    1.3253 C.3       1 <0>         0.1135
     27 C16        -5.1064    2.0408    2.4226 C.3       1 <0>         0.0638
     28 H3         -5.8757    1.3447    2.0885 H         1 <0>         0.0820
     29 C17        -5.7398    3.3933    2.8175 C.3       1 <0>        -0.1509
     30 C18        -5.9439    3.2807    4.3449 C.3       1 <0>        -0.1554
     31 C19        -5.4096    1.8734    4.6922 C.3       1 <0>         0.0436
     32 O5         -4.4806    1.5594    3.6319 O.3       1 <0>        -0.3681
     33 Cl1        -2.7742    3.9161   -0.0987 Cl        1 <0>        -0.0264
     34 H4          2.0576    3.7185    0.1532 H         1 <0>         0.1470
     35 H5         -0.1109    4.8777    0.1873 H         1 <0>         0.1554
     36 H6          0.0336   -0.0110   -0.4748 H         1 <0>         0.1699
     37 H7          3.6096    2.7370    0.0303 H         1 <0>         0.4117
     38 H8          4.0169   -0.6051    1.0715 H         1 <0>         0.1474
     39 H9          6.1581   -1.8043    1.2265 H         1 <0>         0.1397
     40 H10         5.9629    2.6478   -0.9082 H         1 <0>         0.1372
     41 H11        -3.7266    0.1481    1.4172 H         1 <0>         0.4270
     42 H12        -3.2332    2.8365    1.7164 H         1 <0>         0.0824
     43 H13        -4.5133    2.7635    0.4818 H         1 <0>         0.0967
     44 H14        -5.0634    4.2150    2.5821 H         1 <0>         0.0793
     45 H15        -6.6966    3.5287    2.3133 H         1 <0>         0.0835
     46 H16        -5.3684    4.0467    4.8646 H         1 <0>         0.0774
     47 H17        -7.0014    3.3627    4.5960 H         1 <0>         0.0796
     48 H18        -4.8968    1.8889    5.6539 H         1 <0>         0.0941
     49 H19        -6.2257    1.1510    4.7079 H         1 <0>         0.0622
@<TRIPOS>BOND
     1    1    6 ar
     2    1    2 ar
     3    1   34 1
     4    2    3 ar
     5    2   35 1
     6    3    4 ar
     7    3   33 1
     8    4    5 ar
     9    4   22 1
    10    5    6 ar
    11    5   36 1
    12    6    7 1
    13    7    8 2
    14    7    9 am
    15    9   10 1
    16    9   37 1
    17   10   15 ar
    18   10   11 ar
    19   11   12 ar
    20   11   38 1
    21   12   13 ar
    22   12   39 1
    23   13   20 1
    24   13   14 ar
    25   14   15 ar
    26   14   16 1
    27   15   40 1
    28   16   17 1
    29   16   18 am
    30   18   19 2
    31   18   20 am
    32   20   21 1
    33   22   23 2
    34   22   24 2
    35   22   25 1
    36   25   26 1
    37   25   41 1
    38   26   27 1
    39   26   42 1
    40   26   43 1
    41   27   28 1
    42   27   32 1
    43   27   29 1
    44   29   30 1
    45   29   44 1
    46   29   45 1
    47   30   31 1
    48   30   46 1
    49   30   47 1
    50   31   32 1
    51   31   48 1
    52   31   49 1
@<TRIPOS>MOLECULE
ZINC17051984
   56    59     0     0     0
SMALL
USER_CHARGES
N-[(2S,3R,4R,5R,6R)-2-[4-cyclopropyl-3-(p-tolyl)-5-thioxo-1,2,4-triazol-1-yl]-4,5-dihydroxy-6-(hydroxymethyl)tetrahydropyran-3-yl]acetamide
@<TRIPOS>ATOM
      1 C1          6.8895    0.0333    6.0892 C.3       1 <0>        -0.1241
      2 C2          5.6780   -0.1566    5.2132 C.ar      1 <0>        -0.0511
      3 C3          5.2910    0.8489    4.3454 C.ar      1 <0>        -0.1217
      4 C4          4.1825    0.6813    3.5411 C.ar      1 <0>        -0.0614
      5 C5          3.4519   -0.5054    3.6039 C.ar      1 <0>        -0.0549
      6 C6          3.8442   -1.5135    4.4849 C.ar      1 <0>        -0.0796
      7 C7          4.9579   -1.3360    5.2799 C.ar      1 <0>        -0.1198
      8 C8          2.2620   -0.6918    2.7441 C.2       1 <0>         0.3359
      9 N1          1.9838   -0.0067    1.6705 N.2       1 <0>        -0.2814
     10 N2          0.7754   -0.4886    1.1492 N.pl3     1 <0>        -0.3970
     11 C9          0.3503   -1.4796    1.9595 C.2       1 <0>         0.4695
     12 S1         -1.0831   -2.3962    1.7689 S.2       1 <0>        -0.5530
     13 N3          1.2595   -1.6201    2.9446 N.pl3     1 <0>        -0.4637
     14 C10         1.1927   -2.5875    4.0427 C.3       1 <0>         0.0445
     15 C11        -0.1434   -2.7356    4.7734 C.3       1 <0>        -0.1322
     16 C12         1.0320   -2.0364    5.4609 C.3       1 <0>        -0.1706
     17 C13         0.0950   -0.0008   -0.0530 C.3       1 <0>         0.3367
     18 H1         -0.8617   -0.5116   -0.1620 H         1 <0>         0.1750
     19 C14         0.9655   -0.2797   -1.2811 C.3       1 <0>         0.1278
     20 H2          0.4423    0.0463   -2.1800 H         1 <0>         0.1356
     21 C15         2.2834    0.4896   -1.1484 C.3       1 <0>         0.1013
     22 H3          2.8307    0.1279   -0.2779 H         1 <0>         0.0860
     23 C16         1.9767    1.9808   -0.9799 C.3       1 <0>         0.0536
     24 H4          2.9066    2.5292   -0.8294 H         1 <0>         0.0748
     25 C17         1.0671    2.1724    0.2366 C.3       1 <0>         0.0391
     26 H5          1.5861    1.8379    1.1348 H         1 <0>         0.1085
     27 O1         -0.1265    1.4062    0.0626 O.3       1 <0>        -0.3297
     28 C18         0.7073    3.6529    0.3764 C.3       1 <0>         0.0808
     29 O2         -0.0457    3.8489    1.5750 O.3       1 <0>        -0.5612
     30 O3          1.3189    2.4684   -2.1510 O.3       1 <0>        -0.5372
     31 O4          3.0718    0.2936   -2.3241 O.3       1 <0>        -0.5265
     32 N4          1.2421   -1.7157   -1.3692 N.am      1 <0>        -0.7271
     33 C19         1.5309   -2.2744   -2.5612 C.2       1 <0>         0.5162
     34 O5          1.5618   -1.5885   -3.5609 O.2       1 <0>        -0.5124
     35 C20         1.8154   -3.7515   -2.6518 C.3       1 <0>        -0.1732
     36 H6          6.5872    0.4839    7.0346 H         1 <0>         0.0787
     37 H7          7.3551   -0.9336    6.2801 H         1 <0>         0.0726
     38 H8          7.6024    0.6870    5.5867 H         1 <0>         0.0722
     39 H9          5.8575    1.7672    4.2977 H         1 <0>         0.1344
     40 H10         3.8814    1.4670    2.8641 H         1 <0>         0.1325
     41 H11         3.2798   -2.4325    4.5416 H         1 <0>         0.1358
     42 H12         5.2652   -2.1174    5.9591 H         1 <0>         0.1348
     43 H13         1.7997   -3.4841    3.9169 H         1 <0>         0.1466
     44 H14        -0.9726   -2.1133    4.4370 H         1 <0>         0.1186
     45 H15        -0.4152   -3.7296    5.1286 H         1 <0>         0.1203
     46 H16         1.5329   -2.5706    6.2682 H         1 <0>         0.1196
     47 H17         0.9764   -0.9540    5.5770 H         1 <0>         0.1025
     48 H18         1.6206    4.2463    0.4200 H         1 <0>         0.0663
     49 H19         0.1120    3.9648   -0.4818 H         1 <0>         0.0607
     50 H20        -0.3088    4.7667    1.7286 H         1 <0>         0.3848
     51 H21         1.0944    3.4082   -2.1135 H         1 <0>         0.3754
     52 H22         3.9223    0.7534   -2.3085 H         1 <0>         0.3730
     53 H23         1.2173   -2.2643   -0.5696 H         1 <0>         0.3955
     54 H24         0.9476   -4.3108   -2.3022 H         1 <0>         0.0896
     55 H25         2.0263   -4.0181   -3.6874 H         1 <0>         0.0948
     56 H26         2.6781   -3.9941   -2.0313 H         1 <0>         0.0835
@<TRIPOS>BOND
     1    1    2 1
     2    1   36 1
     3    1   37 1
     4    1   38 1
     5    2    7 ar
     6    2    3 ar
     7    3    4 ar
     8    3   39 1
     9    4    5 ar
    10    4   40 1
    11    5    6 ar
    12    5    8 1
    13    6    7 ar
    14    6   41 1
    15    7   42 1
    16    8   13 1
    17    8    9 2
    18    9   10 1
    19   10   11 1
    20   10   17 1
    21   11   12 2
    22   11   13 1
    23   13   14 1
    24   14   16 1
    25   14   15 1
    26   14   43 1
    27   15   16 1
    28   15   44 1
    29   15   45 1
    30   16   46 1
    31   16   47 1
    32   17   18 1
    33   17   27 1
    34   17   19 1
    35   19   20 1
    36   19   21 1
    37   19   32 1
    38   21   22 1
    39   21   23 1
    40   21   31 1
    41   23   24 1
    42   23   25 1
    43   23   30 1
    44   25   26 1
    45   25   27 1
    46   25   28 1
    47   28   29 1
    48   28   48 1
    49   28   49 1
    50   29   50 1
    51   30   51 1
    52   31   52 1
    53   32   33 am
    54   32   53 1
    55   33   34 2
    56   33   35 1
    57   35   54 1
    58   35   55 1
    59   35   56 1
@<TRIPOS>MOLECULE
ZINC24900482
   41    43     0     0     0
SMALL
USER_CHARGES
6-[[4-amino-5-(2-bromophenyl)-1,2,4-triazol-3-yl]sulfanylmethyl]-N',N'-dimethyl-1,3,5-triazine-2,4-diamine
@<TRIPOS>ATOM
      1 C1          6.9844    3.9409   -3.8543 C.3       1 <0>         0.0875
      2 N1          7.8089    3.9897   -2.6443 N.pl3     1 <0>        -0.5769
      3 C2          9.2258    4.3502   -2.7374 C.3       1 <0>         0.0890
      4 C3          7.2510    3.6959   -1.4168 C.ar      1 <0>         0.6301
      5 N2          5.9636    3.3681   -1.3312 N.ar      1 <0>        -0.6259
      6 C4          5.4285    3.0862   -0.1563 C.ar      1 <0>         0.4410
      7 N3          6.1672    3.1333    0.9386 N.ar      1 <0>        -0.6290
      8 C5          7.4563    3.4553    0.8604 C.ar      1 <0>         0.6361
      9 N4          7.9979    3.7394   -0.3192 N.ar      1 <0>        -0.6557
     10 N5          8.2281    3.4990    2.0035 N.pl3     1 <0>        -0.8287
     11 C6          3.9706    2.7162   -0.0639 C.3       1 <0>        -0.0382
     12 S1          3.7910    0.9235   -0.2374 S.3       1 <0>         0.0402
     13 C7          2.0410    0.7761   -0.0950 C.2       1 <0>         0.1329
     14 N6          1.1879    1.7595    0.0854 N.2       1 <0>        -0.2738
     15 N7         -0.0104    1.2990    0.1443 N.2       1 <0>        -0.2281
     16 C8          0.0038   -0.0063    0.0053 C.2       1 <0>         0.1853
     17 N8          1.3181   -0.3813   -0.1522 N.pl3     1 <0>        -0.2031
     18 N9          1.7997   -1.6473   -0.3290 N.3       1 <0>        -0.7628
     19 C9         -1.1708   -0.9038    0.0161 C.ar      1 <0>         0.0133
     20 C10        -1.1568   -2.0676    0.7867 C.ar      1 <0>        -0.1030
     21 C11        -2.2560   -2.9009    0.7923 C.ar      1 <0>        -0.1004
     22 C12        -3.3716   -2.5855    0.0366 C.ar      1 <0>        -0.0988
     23 C13        -3.3929   -1.4341   -0.7295 C.ar      1 <0>        -0.0879
     24 C14        -2.3014   -0.5883   -0.7402 C.ar      1 <0>        -0.0582
     25 Br1        -2.3353    0.9898   -1.7814 Br        1 <0>        -0.0194
     26 H1          5.9568    3.6539   -3.5865 H         1 <0>         0.0985
     27 H2          7.4017    3.2005   -4.5527 H         1 <0>         0.0621
     28 H3          6.9757    4.9316   -4.3322 H         1 <0>         0.0622
     29 H4          9.6752    4.3330   -1.7336 H         1 <0>         0.0950
     30 H5          9.3200    5.3597   -3.1641 H         1 <0>         0.0618
     31 H6          9.7460    3.6286   -3.3845 H         1 <0>         0.0617
     32 H7          9.2934    3.7652    1.9380 H         1 <0>         0.4400
     33 H8          7.7780    3.2676    2.9802 H         1 <0>         0.4428
     34 H9          3.5734    3.0318    0.9121 H         1 <0>         0.1310
     35 H10         3.4128    3.2200   -0.8670 H         1 <0>         0.1307
     36 H11         1.1062   -2.5007   -0.3568 H         1 <0>         0.4476
     37 H12         2.8810   -1.8134   -0.4436 H         1 <0>         0.4493
     38 H13        -0.2869   -2.3153    1.3770 H         1 <0>         0.1334
     39 H14        -2.2461   -3.8016    1.3882 H         1 <0>         0.1377
     40 H15        -4.2294   -3.2417    0.0448 H         1 <0>         0.1387
     41 H16        -4.2665   -1.1940   -1.3173 H         1 <0>         0.1418
@<TRIPOS>BOND
     1    1    2 1
     2    1   26 1
     3    1   27 1
     4    1   28 1
     5    2    3 1
     6    2    4 1
     7    3   29 1
     8    3   30 1
     9    3   31 1
    10    4    9 ar
    11    4    5 ar
    12    5    6 ar
    13    6    7 ar
    14    6   11 1
    15    7    8 ar
    16    8    9 ar
    17    8   10 1
    18   10   32 1
    19   10   33 1
    20   11   12 1
    21   11   34 1
    22   11   35 1
    23   12   13 1
    24   13   17 1
    25   13   14 2
    26   14   15 1
    27   15   16 2
    28   16   17 1
    29   16   19 1
    30   17   18 1
    31   18   36 1
    32   18   37 1
    33   19   24 ar
    34   19   20 ar
    35   20   21 ar
    36   20   38 1
    37   21   22 ar
    38   21   39 1
    39   22   23 ar
    40   22   40 1
    41   23   24 ar
    42   23   41 1
    43   24   25 1
@<TRIPOS>MOLECULE
ZINC39361524
   54    57     0     0     0
SMALL
USER_CHARGES

@<TRIPOS>ATOM
      1 C1         -2.4440    1.1190    0.1651 C.3       1 <0>        -0.1153
      2 C2         -2.1200   -0.3525    0.1407 C.ar      1 <0>        -0.0976
      3 C3         -1.1987   -0.8709    1.0322 C.ar      1 <0>        -0.1009
      4 C4         -0.8996   -2.2191    1.0124 C.ar      1 <0>        -0.1150
      5 C5         -1.5255   -3.0544    0.0963 C.ar      1 <0>         0.1363
      6 C6         -2.4505   -2.5307   -0.7973 C.ar      1 <0>        -0.1383
      7 C7         -2.7488   -1.1825   -0.7692 C.ar      1 <0>        -0.1014
      8 N1         -1.2243   -4.4206    0.0734 N.am      1 <0>        -0.6659
      9 C8         -0.9136   -5.0615    1.2176 C.2       1 <0>         0.5350
     10 O1         -0.9865   -4.4781    2.2785 O.2       1 <0>        -0.5001
     11 C9         -0.4756   -6.5029    1.1789 C.3       1 <0>        -0.1512
     12 S1         -0.1316   -7.0759    2.8654 S.3       1 <0>         0.0765
     13 C10         0.3616   -8.7541    2.6531 C.2       1 <0>         0.2603
     14 N2          0.4349   -9.3468    1.5095 N.2       1 <0>        -0.2957
     15 N3          0.8547  -10.6755    1.6463 N.pl3     1 <0>        -0.6552
     16 C11         1.0584  -10.8952    3.0887 C.3       1 <0>         0.3799
     17 H1          0.3908  -11.6753    3.4547 H         1 <0>         0.0780
     18 N4          0.7236   -9.5957    3.6953 N.pl3     1 <0>        -0.5798
     19 C12         0.7606   -9.2740    5.0546 C.ar      1 <0>         0.1564
     20 C13        -0.1296   -9.8738    5.9365 C.ar      1 <0>        -0.1169
     21 C14        -0.0899   -9.5539    7.2793 C.ar      1 <0>        -0.1062
     22 C15         0.8345   -8.6376    7.7465 C.ar      1 <0>        -0.1128
     23 C16         1.7221   -8.0386    6.8713 C.ar      1 <0>        -0.1040
     24 C17         1.6915   -8.3578    5.5281 C.ar      1 <0>        -0.1127
     25 C18         2.5163  -11.2601    3.3755 C.3       1 <0>        -0.1227
     26 C19         2.8632  -12.5414    2.6621 C.2       1 <0>         0.2061
     27 N5          2.5800  -13.7487    3.2405 N.am      1 <0>        -0.6344
     28 C20         2.8852  -14.8982    2.6117 C.2       1 <0>         0.7014
     29 O2          2.6248  -15.9600    3.1439 O.2       1 <0>        -0.5353
     30 N6          3.4744  -14.8895    1.4016 N.am      1 <0>        -0.6589
     31 C21         3.7698  -13.7206    0.7979 C.2       1 <0>         0.5502
     32 O3          4.3029  -13.7118   -0.2970 O.2       1 <0>        -0.5082
     33 C22         3.4498  -12.5035    1.4465 C.2       1 <0>        -0.2856
     34 H2         -3.2726    1.2974    0.8505 H         1 <0>         0.0709
     35 H3         -1.5698    1.6781    0.4986 H         1 <0>         0.0669
     36 H4         -2.7241    1.4460   -0.8363 H         1 <0>         0.0666
     37 H5         -0.7123   -0.2209    1.7443 H         1 <0>         0.1267
     38 H6         -0.1794   -2.6233    1.7084 H         1 <0>         0.1353
     39 H7         -2.9387   -3.1776   -1.5112 H         1 <0>         0.1265
     40 H8         -3.4712   -0.7753   -1.4611 H         1 <0>         0.1271
     41 H9         -1.2391   -4.9065   -0.7660 H         1 <0>         0.4144
     42 H10        -1.2677   -7.1117    0.7429 H         1 <0>         0.1271
     43 H11         0.4265   -6.5925    0.5737 H         1 <0>         0.1287
     44 H12         0.9852  -11.3215    0.9345 H         1 <0>         0.4473
     45 H13        -0.8520  -10.5893    5.5723 H         1 <0>         0.1247
     46 H14        -0.7819  -10.0196    7.9654 H         1 <0>         0.1292
     47 H15         0.8632   -8.3889    8.7971 H         1 <0>         0.1277
     48 H16         2.4428   -7.3234    7.2395 H         1 <0>         0.1302
     49 H17         2.3876   -7.8927    4.8459 H         1 <0>         0.1280
     50 H18         3.1672  -10.4601    3.0228 H         1 <0>         0.1129
     51 H19         2.6531  -11.3933    4.4487 H         1 <0>         0.1032
     52 H20         3.6877  -15.7276    0.9621 H         1 <0>         0.4332
     53 H21         3.6750  -11.5574    0.9769 H         1 <0>         0.1719
     54 H22         2.1555  -13.7759    4.1123 H         1 <0>         0.4355
@<TRIPOS>BOND
     1    1    2 1
     2    1   34 1
     3    1   35 1
     4    1   36 1
     5    2    7 ar
     6    2    3 ar
     7    3    4 ar
     8    3   37 1
     9    4    5 ar
    10    4   38 1
    11    5    6 ar
    12    5    8 1
    13    6    7 ar
    14    6   39 1
    15    7   40 1
    16    8    9 am
    17    8   41 1
    18    9   10 2
    19    9   11 1
    20   11   12 1
    21   11   42 1
    22   11   43 1
    23   12   13 1
    24   13   18 1
    25   13   14 2
    26   14   15 1
    27   15   16 1
    28   15   44 1
    29   16   17 1
    30   16   18 1
    31   16   25 1
    32   18   19 1
    33   19   24 ar
    34   19   20 ar
    35   20   21 ar
    36   20   45 1
    37   21   22 ar
    38   21   46 1
    39   22   23 ar
    40   22   47 1
    41   23   24 ar
    42   23   48 1
    43   24   49 1
    44   25   50 1
    45   25   51 1
    46   25   26 1
    47   26   33 2
    48   26   27 1
    49   27   28 am
    50   27   54 1
    51   28   29 2
    52   28   30 am
    53   30   52 1
    54   30   31 am
    55   31   32 2
    56   31   33 1
    57   33   53 1
@<TRIPOS>MOLECULE
ZINC40824368
   54    57     0     0     0
SMALL
USER_CHARGES

@<TRIPOS>ATOM
      1 C1         -0.0122    1.5023    0.0098 C.3       1 <0>        -0.1003
      2 C2         -0.0028   -0.0047    0.0019 C.2       1 <0>        -0.0228
      3 C3         -0.0071   -0.8391   -1.1223 C.2       1 <0>        -0.1581
      4 C4          0.0042   -2.1381   -0.6723 C.2       1 <0>         0.0742
      5 O1          0.0181   -2.1124    0.6585 O.3       1 <0>        -0.1459
      6 C5          0.0178   -0.8310    1.0911 C.2       1 <0>        -0.1068
      7 C6          0.0339   -0.4001    2.4931 C.2       1 <0>         0.6113
      8 O2          0.0294    0.7860    2.7652 O.2       1 <0>        -0.4901
      9 N1          0.0537   -1.3178    3.4800 N.am      1 <0>        -0.6645
     10 C7          0.1659   -0.9103    4.8090 C.ar      1 <0>         0.1743
     11 C8         -0.4455    0.2676    5.2276 C.ar      1 <0>        -0.1267
     12 C9         -0.3372    0.6733    6.5386 C.ar      1 <0>        -0.0336
     13 C10         0.3887   -0.1004    7.4505 C.ar      1 <0>         0.0300
     14 C11         1.0019   -1.2840    7.0257 C.ar      1 <0>        -0.0737
     15 C12         0.8841   -1.6857    5.7143 C.ar      1 <0>        -0.1477
     16 N2          0.4988    0.2986    8.7510 N.2       1 <0>        -0.2080
     17 N3          1.1686   -0.4161    9.5904 N.2       1 <0>        -0.2171
     18 C13         1.2789   -0.0164   10.8931 C.ar      1 <0>         0.0439
     19 C14         0.6626    1.1628   11.3203 C.ar      1 <0>        -0.0977
     20 C15         0.7778    1.5594   12.6361 C.ar      1 <0>        -0.1257
     21 C16         1.5020    0.7931   13.5325 C.ar      1 <0>        -0.0918
     22 C17         2.1150   -0.3759   13.1167 C.ar      1 <0>        -0.1253
     23 C18         2.0037   -0.7881   11.8053 C.ar      1 <0>        -0.0583
     24 C19        -0.0020   -3.3274   -1.5989 C.3       1 <0>        -0.0466
     25 C20        -0.5298   -2.9003   -2.9712 C.3       1 <0>        -0.1098
     26 C21         0.2472   -1.6882   -3.4957 C.3       1 <0>        -0.1202
     27 C22        -0.0190   -0.5131   -2.5661 C.2       1 <0>         0.1794
     28 N4         -0.2405    0.6864   -3.0068 N.2       1 <0>        -0.2456
     29 N5         -0.2399    0.9375   -4.3851 N.am      1 <0>        -0.5865
     30 C23        -0.4701    2.1840   -4.8431 C.2       1 <0>         0.7351
     31 O3         -0.4697    2.4020   -6.0395 O.2       1 <0>        -0.5841
     32 N6         -0.7009    3.1889   -3.9751 N.am      1 <0>        -0.8488
     33 H1          1.0130    1.8721   -0.0023 H         1 <0>         0.0797
     34 H2         -0.5404    1.8669   -0.8712 H         1 <0>         0.0803
     35 H3         -0.5162    1.8577    0.9086 H         1 <0>         0.0891
     36 H4         -0.0101   -2.2618    3.2658 H         1 <0>         0.4183
     37 H5         -1.0055    0.8644    4.5229 H         1 <0>         0.1509
     38 H6         -0.8117    1.5877    6.8626 H         1 <0>         0.1414
     39 H7          1.5632   -1.8840    7.7267 H         1 <0>         0.1429
     40 H8          1.3531   -2.6016    5.3866 H         1 <0>         0.1337
     41 H9          0.0977    1.7622   10.6217 H         1 <0>         0.1370
     42 H10         0.3021    2.4705   12.9677 H         1 <0>         0.1286
     43 H11         1.5894    1.1090   14.5616 H         1 <0>         0.1289
     44 H12         2.6789   -0.9687   13.8217 H         1 <0>         0.1335
     45 H13         2.4789   -1.7029   11.4833 H         1 <0>         0.1351
     46 H14         1.0125   -3.7122   -1.7033 H         1 <0>         0.1049
     47 H15        -0.6456   -4.1052   -1.1879 H         1 <0>         0.1014
     48 H16        -0.4200   -3.7280   -3.6718 H         1 <0>         0.0952
     49 H17        -1.5850   -2.6408   -2.8853 H         1 <0>         0.0772
     50 H18         1.3137   -1.9126   -3.5084 H         1 <0>         0.1005
     51 H19        -0.0895   -1.4436   -4.5031 H         1 <0>         0.0833
     52 H20        -0.0739    0.2143   -5.0098 H         1 <0>         0.4019
     53 H21        -0.7012    3.0151   -3.0208 H         1 <0>         0.4077
     54 H22        -0.8665    4.0861   -4.3047 H         1 <0>         0.4160
@<TRIPOS>BOND
     1    1    2 1
     2    1   33 1
     3    1   34 1
     4    1   35 1
     5    2    6 2
     6    2    3 1
     7    3   27 1
     8    3    4 2
     9    4    5 1
    10    4   24 1
    11    5    6 1
    12    6    7 1
    13    7    8 2
    14    7    9 am
    15    9   10 1
    16    9   36 1
    17   10   15 ar
    18   10   11 ar
    19   11   12 ar
    20   11   37 1
    21   12   13 ar
    22   12   38 1
    23   13   14 ar
    24   13   16 1
    25   14   15 ar
    26   14   39 1
    27   15   40 1
    28   16   17 2
    29   17   18 1
    30   18   23 ar
    31   18   19 ar
    32   19   20 ar
    33   19   41 1
    34   20   21 ar
    35   20   42 1
    36   21   22 ar
    37   21   43 1
    38   22   23 ar
    39   22   44 1
    40   23   45 1
    41   24   25 1
    42   24   46 1
    43   24   47 1
    44   25   26 1
    45   25   48 1
    46   25   49 1
    47   26   27 1
    48   26   50 1
    49   26   51 1
    50   27   28 2
    51   28   29 1
    52   29   30 am
    53   29   52 1
    54   30   31 2
    55   30   32 am
    56   32   53 1
    57   32   54 1
@<TRIPOS>MOLECULE
ZINC04222474
   63    66     0     0     0
SMALL
USER_CHARGES
N-[hydroxy-(hydroxymethyl)-dimethyl-(thiazol-2-ylcarbamoylmethyl)BLAHyl]-2-methoxy-acetamide
@<TRIPOS>ATOM
      1 C1          3.0343   -8.4633   -1.7517 C.3       1 <0>        -0.1701
      2 C2          1.8740   -8.4141   -2.7479 C.3       1 <0>        -0.0463
      3 C3          2.1331   -9.4054   -3.8874 C.3       1 <0>        -0.1125
      4 C4          2.1923  -10.8328   -3.3475 C.3       1 <0>        -0.1575
      5 C5          0.8468  -11.1705   -2.6982 C.3       1 <0>         0.1195
      6 H1          0.0487  -11.0597   -3.4322 H         1 <0>         0.0526
      7 C6          0.6109  -10.2128   -1.5318 C.3       1 <0>        -0.0414
      8 C7          0.5680   -8.7654   -2.0317 C.3       1 <0>        -0.0535
      9 H2         -0.2766   -8.6194   -2.7050 H         1 <0>         0.0890
     10 C8          0.4169   -7.8603   -0.7933 C.3       1 <0>        -0.0365
     11 C9          0.7159   -6.4554   -1.1808 C.2       1 <0>        -0.2338
     12 C10         1.3234   -6.0182   -2.3138 C.2       1 <0>         0.0933
     13 N1          1.4775   -4.7005   -2.4218 N.2       1 <0>        -0.5177
     14 C11         1.0642   -3.8668   -1.4901 C.2       1 <0>         0.2816
     15 S1          0.3901   -4.9477   -0.3071 S.3       1 <0>         0.1594
     16 N2          1.1503   -2.4799   -1.4580 N.am      1 <0>        -0.6098
     17 C12         0.6625   -1.7987   -0.4023 C.2       1 <0>         0.5135
     18 O1          0.1485   -2.3959    0.5197 O.2       1 <0>        -0.4762
     19 C13         0.7559   -0.2950   -0.3675 C.3       1 <0>         0.0530
     20 O2          0.1742    0.1905    0.8441 O.3       1 <0>        -0.3654
     21 C14         0.2112    1.6127    0.9776 C.3       1 <0>         0.0295
     22 C15         1.7778   -7.0146   -3.3693 C.3       1 <0>         0.0189
     23 H3          1.0582   -7.0296   -4.1879 H         1 <0>         0.0995
     24 C16         3.1495   -6.5994   -3.9049 C.3       1 <0>        -0.1253
     25 C17         3.0159   -5.3206   -4.6908 C.2       1 <0>         0.5135
     26 O3          1.9304   -4.7931   -4.8108 O.2       1 <0>        -0.4575
     27 N3          4.1027   -4.7630   -5.2604 N.am      1 <0>        -0.6179
     28 C18         3.9795   -3.5834   -5.9854 C.2       1 <0>         0.2905
     29 N4          4.9139   -2.8928   -6.6092 N.2       1 <0>        -0.5564
     30 C19         4.6241   -1.7818   -7.2576 C.2       1 <0>         0.0540
     31 C20         3.3364   -1.3588   -7.2711 C.2       1 <0>        -0.2739
     32 S2          2.5545   -2.6451   -6.3083 S.3       1 <0>         0.1525
     33 C21        -0.7188  -10.5550   -0.8568 C.3       1 <0>        -0.1383
     34 C22         1.7442  -10.3641   -0.5152 C.3       1 <0>         0.0576
     35 O4          1.6901  -11.6675    0.0681 O.3       1 <0>        -0.5506
     36 O5          0.8715  -12.5156   -2.2163 O.3       1 <0>        -0.5402
     37 H4          3.5556   -9.4157   -1.8479 H         1 <0>         0.0731
     38 H5          3.7266   -7.6475   -1.9598 H         1 <0>         0.0606
     39 H6          2.6472   -8.3617   -0.7378 H         1 <0>         0.0711
     40 H7          1.3299   -9.3302   -4.6204 H         1 <0>         0.0696
     41 H8          3.0805   -9.1623   -4.3684 H         1 <0>         0.0713
     42 H9          2.3868  -11.5254   -4.1664 H         1 <0>         0.0681
     43 H10         2.9861  -10.9099   -2.6046 H         1 <0>         0.0784
     44 H11         1.1142   -8.1815   -0.0195 H         1 <0>         0.0931
     45 H12        -0.6032   -7.9250   -0.4147 H         1 <0>         0.0859
     46 H13         1.5614   -2.0022   -2.1954 H         1 <0>         0.4248
     47 H14         0.2202    0.1221   -1.2203 H         1 <0>         0.0920
     48 H15         1.8027    0.0053   -0.4137 H         1 <0>         0.0910
     49 H16         1.2467    1.9525    0.9593 H         1 <0>         0.0475
     50 H17        -0.3357    2.0694    0.1527 H         1 <0>         0.0478
     51 H18        -0.2491    1.9011    1.9226 H         1 <0>         0.0964
     52 H19         3.8333   -6.4433   -3.0705 H         1 <0>         0.1068
     53 H20         3.5397   -7.3847   -4.5523 H         1 <0>         0.1076
     54 H21         4.9709   -5.1848   -5.1645 H         1 <0>         0.4220
     55 H22         5.3949   -1.2220   -7.7664 H         1 <0>         0.1688
     56 H23         2.9021   -0.4874   -7.7386 H         1 <0>         0.1939
     57 H24        -1.5308  -10.4412   -1.5750 H         1 <0>         0.0502
     58 H25        -0.6909  -11.5846   -0.5002 H         1 <0>         0.0766
     59 H26        -0.8821   -9.8830   -0.0143 H         1 <0>         0.0532
     60 H27         2.7026  -10.2301   -1.0169 H         1 <0>         0.0722
     61 H28         1.6346   -9.6116    0.2657 H         1 <0>         0.0440
     62 H29         2.3811  -11.8340    0.7237 H         1 <0>         0.3684
     63 H30         1.0291  -13.1769   -2.9040 H         1 <0>         0.3687
@<TRIPOS>BOND
     1    1    2 1
     2    1   37 1
     3    1   38 1
     4    1   39 1
     5    2    8 1
     6    2   22 1
     7    2    3 1
     8    3    4 1
     9    3   40 1
    10    3   41 1
    11    4    5 1
    12    4   42 1
    13    4   43 1
    14    5    6 1
    15    5    7 1
    16    5   36 1
    17    7    8 1
    18    7   33 1
    19    7   34 1
    20    8    9 1
    21    8   10 1
    22   10   11 1
    23   10   44 1
    24   10   45 1
    25   11   15 1
    26   11   12 2
    27   12   13 1
    28   12   22 1
    29   13   14 2
    30   14   15 1
    31   14   16 1
    32   16   17 am
    33   16   46 1
    34   17   18 2
    35   17   19 1
    36   19   20 1
    37   19   47 1
    38   19   48 1
    39   20   21 1
    40   21   49 1
    41   21   50 1
    42   21   51 1
    43   22   23 1
    44   22   24 1
    45   24   25 1
    46   24   52 1
    47   24   53 1
    48   25   26 2
    49   25   27 am
    50   27   28 1
    51   27   54 1
    52   28   32 1
    53   28   29 2
    54   29   30 1
    55   30   31 2
    56   30   55 1
    57   31   32 1
    58   31   56 1
    59   33   57 1
    60   33   58 1
    61   33   59 1
    62   34   35 1
    63   34   60 1
    64   34   61 1
    65   35   62 1
    66   36   63 1
@<TRIPOS>MOLECULE
ZINC14720793
   59    60     0     0     0
SMALL
USER_CHARGES
3-acetamido-N-(6-amino-1-isobutyl-2,4-dioxo-pyrimidin-5-yl)-N-butyl-benzamide
@<TRIPOS>ATOM
      1 C1          3.7984   -6.3571    3.0129 C.3       1 <0>        -0.1509
      2 C2          2.3426   -6.0325    2.6720 C.3       1 <0>        -0.1216
      3 C3          2.1305   -4.5184    2.7303 C.3       1 <0>        -0.1318
      4 C4          0.6747   -4.1939    2.3894 C.3       1 <0>         0.1166
      5 N1          0.4717   -2.7441    2.4452 N.am      1 <0>        -0.5088
      6 C5          0.7664   -1.9470    1.3199 C.2       1 <0>        -0.1737
      7 C6          1.7281   -0.9596    1.3915 C.2       1 <0>         0.4962
      8 N2          1.9935   -0.1988    0.2767 N.am      1 <0>        -0.5326
      9 C7          1.3202   -0.4110   -0.8685 C.2       1 <0>         0.7101
     10 O1          1.5664    0.2754   -1.8416 O.2       1 <0>        -0.5244
     11 N3          0.3836   -1.3719   -0.9585 N.am      1 <0>        -0.6642
     12 H1         -0.0969   -1.5143   -1.8238 H         1 <0>         0.4414
     13 C8          0.0853   -2.1450    0.1040 C.2       1 <0>         0.5630
     14 O2         -0.7688   -3.0106    0.0127 O.2       1 <0>        -0.5122
     15 C9          3.0114    0.8531    0.3386 C.3       1 <0>         0.1056
     16 C10         4.3719    0.2697   -0.0483 C.3       1 <0>        -0.1146
     17 C11         4.3383   -0.1755   -1.5117 C.3       1 <0>        -0.1434
     18 C12         5.4546    1.3348    0.1360 C.3       1 <0>        -0.1467
     19 N4          2.4126   -0.7394    2.5627 N.pl3     1 <0>        -0.8201
     20 C13         0.0031   -2.1721    3.5721 C.2       1 <0>         0.5526
     21 O3         -0.2013   -2.8520    4.5594 O.2       1 <0>        -0.5160
     22 C14        -0.2623   -0.7182    3.6078 C.ar      1 <0>        -0.1160
     23 C15        -0.5219   -0.0242    2.4244 C.ar      1 <0>        -0.1090
     24 C16        -0.7698    1.3327    2.4606 C.ar      1 <0>        -0.1087
     25 C17        -0.7622    2.0096    3.6661 C.ar      1 <0>        -0.1172
     26 C18        -0.5054    1.3280    4.8494 C.ar      1 <0>         0.1379
     27 C19        -0.2599   -0.0362    4.8244 C.ar      1 <0>        -0.0636
     28 N5         -0.4994    2.0178    6.0672 N.am      1 <0>        -0.6752
     29 C20         0.3422    1.6419    7.0504 C.2       1 <0>         0.5110
     30 O4          1.1602    0.7696    6.8480 O.2       1 <0>        -0.5235
     31 C21         0.2669    2.3055    8.4014 C.3       1 <0>        -0.1709
     32 H2          4.4572   -5.8700    2.2940 H         1 <0>         0.0517
     33 H3          4.0257   -5.9967    4.0162 H         1 <0>         0.0535
     34 H4          3.9495   -7.4358    2.9714 H         1 <0>         0.0553
     35 H5          1.6838   -6.5196    3.3909 H         1 <0>         0.0656
     36 H6          2.1153   -6.3929    1.6687 H         1 <0>         0.0635
     37 H7          2.7893   -4.0313    2.0114 H         1 <0>         0.0607
     38 H8          2.3578   -4.1581    3.7336 H         1 <0>         0.0642
     39 H9          0.0159   -4.6809    3.1083 H         1 <0>         0.0903
     40 H10         0.4475   -4.5542    1.3861 H         1 <0>         0.0870
     41 H11         2.7493    1.6535   -0.3533 H         1 <0>         0.1155
     42 H12         3.0616    1.2509    1.3522 H         1 <0>         0.0928
     43 H13         4.5936   -0.5876    0.5872 H         1 <0>         0.0748
     44 H14         3.5669   -0.9343   -1.6431 H         1 <0>         0.0500
     45 H15         4.1165    0.6818   -2.1473 H         1 <0>         0.0672
     46 H16         5.3075   -0.5911   -1.7874 H         1 <0>         0.0571
     47 H17         5.4785    1.6520    1.1786 H         1 <0>         0.0582
     48 H18         6.4238    0.9192   -0.1396 H         1 <0>         0.0659
     49 H19         5.2329    2.1921   -0.4995 H         1 <0>         0.0631
     50 H20         3.1378   -0.0956    2.5869 H         1 <0>         0.4101
     51 H21         2.1707   -1.2279    3.3650 H         1 <0>         0.4251
     52 H22        -0.5290   -0.5495    1.4808 H         1 <0>         0.1360
     53 H23        -0.9708    1.8677    1.5443 H         1 <0>         0.1304
     54 H24        -0.9570    3.0716    3.6882 H         1 <0>         0.1310
     55 H25        -0.0642   -0.5685    5.7435 H         1 <0>         0.1464
     56 H26        -1.1009    2.7665    6.2035 H         1 <0>         0.4140
     57 H27        -0.5219    3.0577    8.3932 H         1 <0>         0.0795
     58 H28         0.0470    1.5566    9.1623 H         1 <0>         0.1018
     59 H29         1.2212    2.7821    8.6258 H         1 <0>         0.1000
@<TRIPOS>BOND
     1    1    2 1
     2    1   32 1
     3    1   33 1
     4    1   34 1
     5    2    3 1
     6    2   35 1
     7    2   36 1
     8    3    4 1
     9    3   37 1
    10    3   38 1
    11    4    5 1
    12    4   39 1
    13    4   40 1
    14    5    6 1
    15    5   20 am
    16    6   13 1
    17    6    7 2
    18    7    8 1
    19    7   19 1
    20    8    9 am
    21    8   15 1
    22    9   10 2
    23    9   11 am
    24   11   12 1
    25   11   13 am
    26   13   14 2
    27   15   16 1
    28   15   41 1
    29   15   42 1
    30   16   17 1
    31   16   18 1
    32   16   43 1
    33   17   44 1
    34   17   45 1
    35   17   46 1
    36   18   47 1
    37   18   48 1
    38   18   49 1
    39   19   50 1
    40   19   51 1
    41   20   21 2
    42   20   22 1
    43   22   27 ar
    44   22   23 ar
    45   23   24 ar
    46   23   52 1
    47   24   25 ar
    48   24   53 1
    49   25   26 ar
    50   25   54 1
    51   26   27 ar
    52   26   28 1
    53   27   55 1
    54   28   29 am
    55   28   56 1
    56   29   30 2
    57   29   31 1
    58   31   57 1
    59   31   58 1
    60   31   59 1
@<TRIPOS>MOLECULE
ZINC21324681
   45    47     0     0     0
SMALL
USER_CHARGES
2-[[4-amino-5-[(N'E)-N'-[1-(2-pyridyl)ethylidene]hydrazino]-1,2,4-triazol-3-yl]sulfanyl]-N-(3-bromophenyl)acetamide
@<TRIPOS>ATOM
      1 C1        -11.1999   -1.4442   -0.2160 C.3       1 <0>        -0.1543
      2 C2        -10.2283   -2.5655    0.0481 C.2       1 <0>         0.1306
      3 N1         -8.9518   -2.3250    0.0800 N.2       1 <0>        -0.1841
      4 N2         -8.4788   -1.0232   -0.1312 N.pl3     1 <0>        -0.5555
      5 C3         -7.1155   -0.7664   -0.0972 C.2       1 <0>         0.4872
      6 N3         -6.1705   -1.6483    0.1213 N.2       1 <0>        -0.3122
      7 N4         -4.9380   -0.9842    0.0673 N.2       1 <0>        -0.3030
      8 C4         -5.1713    0.2840   -0.1744 C.2       1 <0>         0.1708
      9 N5         -6.5222    0.4509   -0.2856 N.pl3     1 <0>        -0.2624
     10 N6         -7.1674    1.6277   -0.5404 N.3       1 <0>        -0.7779
     11 S1         -3.9548    1.5485   -0.3349 S.3       1 <0>         0.0829
     12 C5         -2.4525    0.5754   -0.0661 C.3       1 <0>        -0.1484
     13 C6         -1.2475    1.4754   -0.1602 C.2       1 <0>         0.5366
     14 O1         -1.3903    2.6584   -0.3867 O.2       1 <0>        -0.5049
     15 N7         -0.0111    0.9658    0.0074 N.am      1 <0>        -0.6784
     16 C7          1.0996    1.8166    0.0263 C.ar      1 <0>         0.1571
     17 C8          2.3183    1.3813   -0.4783 C.ar      1 <0>        -0.1292
     18 C9          3.4117    2.2247   -0.4628 C.ar      1 <0>        -0.0923
     19 C10         3.2974    3.4981    0.0641 C.ar      1 <0>        -0.1066
     20 C11         2.0865    3.9333    0.5725 C.ar      1 <0>        -0.0707
     21 C12         0.9872    3.0955    0.5548 C.ar      1 <0>        -0.0969
     22 Br1         1.9353    5.6753    1.2925 Br        1 <0>        -0.0429
     23 C13       -10.7256   -3.9341    0.2701 C.ar      1 <0>         0.1688
     24 C14        -9.8199   -4.9713    0.5089 C.ar      1 <0>        -0.1301
     25 C15       -10.3035   -6.2491    0.7214 C.ar      1 <0>        -0.0767
     26 C16       -11.6763   -6.4550    0.6774 C.ar      1 <0>        -0.1601
     27 C17       -12.5164   -5.3851    0.4301 C.ar      1 <0>         0.1020
     28 N8        -12.0329   -4.1751    0.2365 N.ar      1 <0>        -0.4666
     29 H1        -12.2267   -1.8385   -0.2047 H         1 <0>         0.1057
     30 H2        -10.9885   -1.0000   -1.1998 H         1 <0>         0.0763
     31 H3        -11.0936   -0.6757    0.5638 H         1 <0>         0.0763
     32 H4         -9.1881   -0.2048   -0.3239 H         1 <0>         0.4136
     33 H5         -6.5894    2.5537   -0.6762 H         1 <0>         0.4498
     34 H6         -8.2650    1.6493   -0.6098 H         1 <0>         0.4373
     35 H7         -2.4883    0.1137    0.9317 H         1 <0>         0.1356
     36 H8         -2.3833   -0.2113   -0.8318 H         1 <0>         0.1347
     37 H9          0.1248   -0.1189    0.1293 H         1 <0>         0.4441
     38 H10         2.4096    0.3855   -0.8863 H         1 <0>         0.1347
     39 H11         4.3584    1.8878   -0.8586 H         1 <0>         0.1380
     40 H12         4.1552    4.1541    0.0792 H         1 <0>         0.1352
     41 H13         0.0419    3.4355    0.9514 H         1 <0>         0.1449
     42 H14        -8.7578   -4.7767    0.5320 H         1 <0>         0.1482
     43 H15        -9.6283   -7.0700    0.9126 H         1 <0>         0.1406
     44 H16       -12.0842   -7.4424    0.8354 H         1 <0>         0.1395
     45 H17       -13.5842   -5.5436    0.3956 H         1 <0>         0.1627
@<TRIPOS>BOND
     1    1    2 1
     2    1   29 1
     3    1   30 1
     4    1   31 1
     5    2    3 2
     6    2   23 1
     7    3    4 1
     8    4    5 1
     9    4   32 1
    10    5    9 1
    11    5    6 2
    12    6    7 1
    13    7    8 2
    14    8    9 1
    15    8   11 1
    16    9   10 1
    17   10   33 1
    18   10   34 1
    19   11   12 1
    20   12   13 1
    21   12   35 1
    22   12   36 1
    23   13   14 2
    24   13   15 am
    25   15   16 1
    26   15   37 1
    27   16   21 ar
    28   16   17 ar
    29   17   18 ar
    30   17   38 1
    31   18   19 ar
    32   18   39 1
    33   19   20 ar
    34   19   40 1
    35   20   21 ar
    36   20   22 1
    37   21   41 1
    38   23   28 ar
    39   23   24 ar
    40   24   25 ar
    41   24   42 1
    42   25   26 ar
    43   25   43 1
    44   26   27 ar
    45   26   44 1
    46   27   28 ar
    47   27   45 1
@<TRIPOS>MOLECULE
ZINC43763798
   64    65     0     0     0
SMALL
USER_CHARGES

@<TRIPOS>ATOM
      1 C1         -0.1080    1.3894    0.7567 C.3       1 <0>        -0.1539
      2 C2         -0.0710   -0.1323    0.6021 C.3       1 <0>        -0.1314
      3 C3         -1.5004   -0.6710    0.5151 C.3       1 <0>        -0.1076
      4 C4         -1.4634   -2.1927    0.3606 C.3       1 <0>        -0.1022
      5 H1         -0.8784   -2.6501    1.1585 H         1 <0>         0.1107
      6 C5         -0.9138   -2.5966   -1.0329 C.3       1 <0>        -0.1486
      7 C6         -1.5567   -3.9788   -1.2729 C.3       1 <0>        -0.0098
      8 H2         -1.8396   -4.0794   -2.3207 H         1 <0>         0.1672
      9 N1         -2.7567   -4.0565   -0.4197 N.4       1 <0>        -0.3773
     10 C7         -2.8958   -2.7809    0.3155 C.3       1 <0>        -0.0050
     11 C8         -3.9442   -4.2778   -1.2557 C.3       1 <0>        -0.0458
     12 C9         -0.5853   -5.0681   -0.8975 C.2       1 <0>         0.5015
     13 O1         -0.8035   -5.7691    0.0679 O.2       1 <0>        -0.5194
     14 N2          0.5260   -5.2634   -1.6347 N.am      1 <0>        -0.7003
     15 C10         1.4001   -6.4050   -1.3537 C.3       1 <0>         0.1119
     16 H3          1.3732   -6.6294   -0.2874 H         1 <0>         0.1317
     17 C11         2.8332   -6.0639   -1.7671 C.3       1 <0>         0.0895
     18 H4          3.5091   -6.8412   -1.4107 H         1 <0>         0.1391
     19 C12         3.2344   -4.7188   -1.1558 C.3       1 <0>         0.0951
     20 H5          4.2687   -4.4944   -1.4164 H         1 <0>         0.1000
     21 C13         2.3180   -3.6224   -1.7075 C.3       1 <0>         0.0234
     22 H6          1.2897   -3.8202   -1.4050 H         1 <0>         0.0751
     23 C14         2.4102   -3.6167   -3.2365 C.3       1 <0>         0.1099
     24 H7          1.7196   -2.8765   -3.6404 H         1 <0>         0.0645
     25 C15         2.0408   -5.0043   -3.7674 C.3       1 <0>         0.0506
     26 H8          1.0095   -5.2335   -3.4991 H         1 <0>         0.0643
     27 O2          2.9113   -5.9807   -3.1915 O.3       1 <0>        -0.3242
     28 S1          2.2157   -5.0276   -5.5728 S.3       1 <0>        -0.0517
     29 C16         1.4642   -6.6031   -6.0663 C.3       1 <0>        -0.1833
     30 O3          3.7441   -3.2918   -3.6333 O.3       1 <0>        -0.7059
     31 P1          4.1019   -2.0090   -4.5380 P.3       1 <0>         2.1052
     32 O4          3.2626   -2.0519   -5.8601 O.2       1 <0>        -1.1597
     33 O5          3.7625   -0.7005   -3.7462 O.3       1 <0>        -1.1759
     34 O6          5.6289   -2.0264   -4.8880 O.3       1 <0>        -1.1577
     35 O7          2.7306   -2.3530   -1.1973 O.3       1 <0>        -0.5353
     36 O8          3.1031   -4.7822    0.2657 O.3       1 <0>        -0.5658
     37 C17         0.9177   -7.6232   -2.1437 C.3       1 <0>        -0.0214
     38 H9          1.0282   -7.4313   -3.2109 H         1 <0>         0.1086
     39 C18        -0.5545   -7.8888   -1.8230 C.3       1 <0>        -0.1508
     40 Cl1         1.9015   -9.0636   -1.6871 Cl        1 <0>        -0.1497
     41 H10         0.9103    1.7732    0.8187 H         1 <0>         0.0648
     42 H11        -0.6106    1.8300   -0.1044 H         1 <0>         0.0568
     43 H12        -0.6502    1.6492    1.6659 H         1 <0>         0.0499
     44 H13         0.4711   -0.3921   -0.3071 H         1 <0>         0.0753
     45 H14         0.4315   -0.5728    1.4632 H         1 <0>         0.0675
     46 H15        -2.0426   -0.4112    1.4243 H         1 <0>         0.0762
     47 H16        -2.0029   -0.2305   -0.3460 H         1 <0>         0.0765
     48 H17        -1.2338   -1.8853   -1.7943 H         1 <0>         0.1247
     49 H18         0.1730   -2.6757   -1.0104 H         1 <0>         0.1208
     50 H19        -3.2634   -2.9623    1.3254 H         1 <0>         0.1370
     51 H20        -3.5661   -2.1070   -0.2179 H         1 <0>         0.1368
     52 H21        -3.8315   -5.2113   -1.8071 H         1 <0>         0.1209
     53 H22        -4.8292   -4.3347   -0.6220 H         1 <0>         0.1266
     54 H23        -4.0529   -3.4516   -1.9583 H         1 <0>         0.1257
     55 H24         0.7470   -4.6481   -2.3512 H         1 <0>         0.4293
     56 H25         1.5219   -6.7097   -7.1495 H         1 <0>         0.1018
     57 H26         1.9993   -7.4254   -5.5912 H         1 <0>         0.0750
     58 H27         0.4199   -6.6210   -5.7545 H         1 <0>         0.0583
     59 H28         2.1928   -1.6112   -1.5065 H         1 <0>         0.3853
     60 H29         3.3414   -3.9622    0.7196 H         1 <0>         0.3889
     61 H30        -1.1493   -7.0180   -2.0990 H         1 <0>         0.0536
     62 H31        -0.8982   -8.7567   -2.3858 H         1 <0>         0.0721
     63 H32        -0.6650   -8.0808   -0.7557 H         1 <0>         0.0794
     64 H33        -2.6583   -4.8168    0.2363 H         1 <0>         0.4310
@<TRIPOS>BOND
     1    1    2 1
     2    1   41 1
     3    1   42 1
     4    1   43 1
     5    2    3 1
     6    2   44 1
     7    2   45 1
     8    3    4 1
     9    3   46 1
    10    3   47 1
    11    4    5 1
    12    4   10 1
    13    4    6 1
    14    6    7 1
    15    6   48 1
    16    6   49 1
    17    7    8 1
    18    7    9 1
    19    7   12 1
    20    9   10 1
    21    9   11 1
    22    9   64 1
    23   10   50 1
    24   10   51 1
    25   11   52 1
    26   11   53 1
    27   11   54 1
    28   12   13 2
    29   12   14 am
    30   14   15 1
    31   14   55 1
    32   15   16 1
    33   15   17 1
    34   15   37 1
    35   17   18 1
    36   17   27 1
    37   17   19 1
    38   19   20 1
    39   19   21 1
    40   19   36 1
    41   21   22 1
    42   21   23 1
    43   21   35 1
    44   23   24 1
    45   23   25 1
    46   23   30 1
    47   25   26 1
    48   25   27 1
    49   25   28 1
    50   28   29 1
    51   29   56 1
    52   29   57 1
    53   29   58 1
    54   30   31 1
    55   31   32 2
    56   31   33 1
    57   31   34 1
    58   35   59 1
    59   36   60 1
    60   37   38 1
    61   37   39 1
    62   37   40 1
    63   39   61 1
    64   39   62 1
    65   39   63 1
@<TRIPOS>MOLECULE
ZINC59878986
   41    42     0     0     0
SMALL
USER_CHARGES

@<TRIPOS>ATOM
      1 C1         -0.0187    1.5258    0.0104 C.3       1 <0>        -0.1454
      2 C2          0.0021   -0.0041    0.0020 C.3       1 <0>        -0.1163
      3 H1          0.5293   -0.3651    0.8851 H         1 <0>         0.1238
      4 C3          0.7074   -0.4901   -1.2379 C.2       1 <0>         0.5408
      5 O1          0.0664   -0.7818   -2.2252 O.2       1 <0>        -0.5166
      6 N1          2.0506   -0.6005   -1.2495 N.am      1 <0>        -0.5173
      7 N2          2.7064   -1.0523   -2.4022 N.am      1 <0>        -0.5233
      8 C4          4.0496   -1.1628   -2.4138 C.2       1 <0>         0.5135
      9 O2          4.6906   -0.8711   -1.4264 O.2       1 <0>        -0.5430
     10 C5          4.7549   -1.6488   -3.6537 C.3       1 <0>        -0.1641
     11 S1         -1.6997   -0.6320    0.0149 S.3       1 <0>         0.1134
     12 C6         -2.3349   -0.1100    1.5733 C.2       1 <0>         0.2191
     13 N3         -3.5678   -0.3530    2.0307 N.2       1 <0>        -0.5140
     14 C7         -3.7093    0.1787    3.2268 C.2       1 <0>         0.5625
     15 N4         -2.5462    0.7800    3.5558 N.pl3     1 <0>        -0.5029
     16 N5         -1.6731    0.5752    2.4753 N.2       1 <0>        -0.3189
     17 N6         -4.8490    0.1303    4.0083 N.pl3     1 <0>        -0.5506
     18 N7         -5.9919   -0.5311    3.5402 N.2       1 <0>        -0.1674
     19 C8         -7.0618   -0.5765    4.2739 C.2       1 <0>         0.0847
     20 C9         -8.2645   -1.2725    3.7812 C.ar      1 <0>        -0.0402
     21 C10        -9.4197   -1.3183    4.5658 C.ar      1 <0>        -0.0668
     22 C11       -10.5413   -1.9705    4.0991 C.ar      1 <0>        -0.1119
     23 C12       -10.5251   -2.5802    2.8553 C.ar      1 <0>        -0.0109
     24 C13        -9.3842   -2.5396    2.0722 C.ar      1 <0>        -0.1090
     25 C14        -8.2562   -1.8848    2.5244 C.ar      1 <0>        -0.0054
     26 Cl1        -6.8285   -1.8283    1.5384 Cl        1 <0>         0.0057
     27 Cl2       -11.9419   -3.3995    2.2763 Cl        1 <0>        -0.0521
     28 H2          1.0039    1.9031    0.0027 H         1 <0>         0.0729
     29 H3         -0.5459    1.8868   -0.8726 H         1 <0>         0.0775
     30 H4         -0.5289    1.8773    0.9072 H         1 <0>         0.0865
     31 H5          2.5633   -0.3672   -0.4598 H         1 <0>         0.4345
     32 H6          2.1937   -1.2857   -3.1919 H         1 <0>         0.4346
     33 H7          4.5390   -0.9745   -4.4824 H         1 <0>         0.0963
     34 H8          5.8299   -1.6719   -3.4747 H         1 <0>         0.1037
     35 H9          4.4061   -2.6515   -3.9007 H         1 <0>         0.0965
     36 H10        -4.8572    0.5544    4.8807 H         1 <0>         0.3989
     37 H11        -7.0710   -0.1043    5.2452 H         1 <0>         0.1306
     38 H12        -9.4339   -0.8441    5.5360 H         1 <0>         0.1476
     39 H13       -11.4347   -2.0064    4.7049 H         1 <0>         0.1454
     40 H14        -9.3780   -3.0176    1.1037 H         1 <0>         0.1485
     41 H15        -2.3509    1.2562    4.3780 H         1 <0>         0.4392
@<TRIPOS>BOND
     1    1    2 1
     2    1   28 1
     3    1   29 1
     4    1   30 1
     5    2    3 1
     6    2    4 1
     7    2   11 1
     8    4    5 2
     9    4    6 am
    10    6    7 1
    11    6   31 1
    12    7    8 am
    13    7   32 1
    14    8    9 2
    15    8   10 1
    16   10   33 1
    17   10   34 1
    18   10   35 1
    19   11   12 1
    20   12   16 2
    21   12   13 1
    22   13   14 2
    23   14   15 1
    24   14   17 1
    25   15   16 1
    26   15   41 1
    27   17   18 1
    28   17   36 1
    29   18   19 2
    30   19   20 1
    31   19   37 1
    32   20   25 ar
    33   20   21 ar
    34   21   22 ar
    35   21   38 1
    36   22   23 ar
    37   22   39 1
    38   23   24 ar
    39   23   27 1
    40   24   25 ar
    41   24   40 1
    42   25   26 1
@<TRIPOS>MOLECULE
ZINC02123347
   52    53     0     0     0
SMALL
USER_CHARGES
2-[2-[2-(7-methyl-2-oxo-4-propyl-chromen-5-yl)oxypropanoylamino]acetyl]aminoacetic acid
@<TRIPOS>ATOM
      1 C1         -0.1165    0.7790   -0.0696 C.3       1 <0>        -0.1413
      2 C2         -0.8720    1.4722    1.0661 C.3       1 <0>        -0.0998
      3 C3         -2.3296    1.0073    1.0674 C.3       1 <0>        -0.0929
      4 C4         -3.0352    1.5697    2.2744 C.2       1 <0>         0.0621
      5 C5         -3.1445    0.8459    3.4191 C.2       1 <0>        -0.2780
      6 C6         -3.8097    1.3950    4.5345 C.2       1 <0>         0.5130
      7 O1         -3.9012    0.7358    5.5545 O.2       1 <0>        -0.4703
      8 O2         -4.3450    2.6254    4.5009 O.3       1 <0>        -0.2707
      9 C7         -4.2712    3.3964    3.3945 C.ar      1 <0>         0.1909
     10 C8         -3.6161    2.9127    2.2477 C.ar      1 <0>        -0.1894
     11 C9         -3.5435    3.7099    1.0948 C.ar      1 <0>         0.2040
     12 C10        -4.1094    4.9726    1.1038 C.ar      1 <0>        -0.2421
     13 C11        -4.7474    5.4437    2.2391 C.ar      1 <0>         0.0156
     14 C12        -4.8302    4.6661    3.3770 C.ar      1 <0>        -0.1778
     15 C13        -5.3590    6.8210    2.2322 C.3       1 <0>        -0.1227
     16 O3         -2.9183    3.2484   -0.0177 O.3       1 <0>        -0.2613
     17 C14        -2.9496    4.0868   -1.1744 C.3       1 <0>         0.0567
     18 H1         -2.9213    5.1320   -0.8664 H         1 <0>         0.1055
     19 C15        -4.2343    3.8218   -1.9619 C.3       1 <0>        -0.1757
     20 C16        -1.7562    3.7871   -2.0445 C.2       1 <0>         0.5176
     21 O4         -1.0156    2.8689   -1.7627 O.2       1 <0>        -0.5063
     22 N1         -1.5119    4.5394   -3.1358 N.am      1 <0>        -0.7087
     23 C17        -0.3517    4.2480   -3.9816 C.3       1 <0>         0.1031
     24 C18        -0.3062    5.2270   -5.1264 C.2       1 <0>         0.4996
     25 O5         -1.1588    6.0838   -5.2259 O.2       1 <0>        -0.5571
     26 N2          0.6821    5.1505   -6.0396 N.am      1 <0>        -0.6949
     27 C19         0.7264    6.1022   -7.1525 C.3       1 <0>         0.0756
     28 C20         1.9198    5.8024   -8.0225 C.2       1 <0>         0.4583
     29 O6          2.6576    4.8877   -7.7418 O.co2     1 <0>        -0.6339
     30 H2         -0.0176   -0.2830    0.1550 H         1 <0>         0.0400
     31 H3          0.8739    1.2227   -0.1711 H         1 <0>         0.0509
     32 H4         -0.6677    0.9035   -1.0016 H         1 <0>         0.0751
     33 H5         -0.4085    1.2176    2.0193 H         1 <0>         0.0503
     34 H6         -0.8351    2.5519    0.9212 H         1 <0>         0.0684
     35 H7         -2.8237    1.3583    0.1614 H         1 <0>         0.1066
     36 H8         -2.3636   -0.0816    1.1012 H         1 <0>         0.0785
     37 H9         -2.7229   -0.1469    3.4746 H         1 <0>         0.1617
     38 H10        -4.0529    5.5935    0.2220 H         1 <0>         0.1437
     39 H11        -5.3313    5.0467    4.2547 H         1 <0>         0.1450
     40 H12        -4.6191    7.5488    2.5655 H         1 <0>         0.0833
     41 H13        -5.6834    7.0695    1.2217 H         1 <0>         0.0762
     42 H14        -6.2168    6.8411    2.9044 H         1 <0>         0.0763
     43 H15        -5.0974    4.0386   -1.3326 H         1 <0>         0.0765
     44 H16        -4.2581    4.4613   -2.8442 H         1 <0>         0.0853
     45 H17        -4.2625    2.7766   -2.2699 H         1 <0>         0.0776
     46 H18        -2.1042    5.2737   -3.3611 H         1 <0>         0.4120
     47 H19         0.5600    4.3369   -3.3909 H         1 <0>         0.1018
     48 H20        -0.4333    3.2342   -4.3735 H         1 <0>         0.1021
     49 H21         1.3640    4.4652   -5.9600 H         1 <0>         0.4115
     50 H22        -0.1854    6.0133   -7.7431 H         1 <0>         0.0759
     51 H23         0.8080    7.1160   -6.7605 H         1 <0>         0.0759
     52 O7          2.1631    6.5517   -9.1094 O.co2     1 <0>        -0.7542
@<TRIPOS>BOND
     1    1    2 1
     2    1   30 1
     3    1   31 1
     4    1   32 1
     5    2    3 1
     6    2   33 1
     7    2   34 1
     8    3    4 1
     9    3   35 1
    10    3   36 1
    11    4   10 1
    12    4    5 2
    13    5    6 1
    14    5   37 1
    15    6    7 2
    16    6    8 1
    17    8    9 1
    18    9   14 ar
    19    9   10 ar
    20   10   11 ar
    21   11   12 ar
    22   11   16 1
    23   12   13 ar
    24   12   38 1
    25   13   14 ar
    26   13   15 1
    27   14   39 1
    28   15   40 1
    29   15   41 1
    30   15   42 1
    31   16   17 1
    32   17   18 1
    33   17   19 1
    34   17   20 1
    35   19   43 1
    36   19   44 1
    37   19   45 1
    38   20   21 2
    39   20   22 am
    40   22   23 1
    41   22   46 1
    42   23   24 1
    43   23   47 1
    44   23   48 1
    45   24   25 2
    46   24   26 am
    47   26   27 1
    48   26   49 1
    49   27   28 1
    50   27   50 1
    51   27   51 1
    52   28   29 2
    53   28   52 1
@<TRIPOS>MOLECULE
ZINC13018129
   46    46     0     0     0
SMALL
USER_CHARGES
2-[3-[2-(butylcarbamoylamino)-2-oxo-ethyl]sulfanyl-5-propyl-1,2,4-triazol-4-yl]acetic acid
@<TRIPOS>ATOM
      1 C1         -5.9010   -7.7451    0.0168 C.3       1 <0>        -0.1525
      2 C2         -5.9217   -6.2153    0.0252 C.3       1 <0>        -0.1225
      3 C3         -4.4863   -5.6857    0.0144 C.3       1 <0>        -0.1315
      4 C4         -4.5071   -4.1558    0.0228 C.3       1 <0>         0.1332
      5 N1         -3.1327   -3.6488    0.0124 N.am      1 <0>        -0.7393
      6 C5         -2.9044   -2.3205    0.0173 C.2       1 <0>         0.6943
      7 O1         -3.8388   -1.5433    0.0304 O.2       1 <0>        -0.5263
      8 N2         -1.6400   -1.8540    0.0078 N.am      1 <0>        -0.6867
      9 C6         -1.4117   -0.5257    0.0127 C.2       1 <0>         0.5385
     10 O2         -2.3438    0.2495    0.0258 O.2       1 <0>        -0.4459
     11 C7          0.0021   -0.0041    0.0020 C.3       1 <0>        -0.1508
     12 S1         -0.0225    1.8057    0.0120 S.3       1 <0>         0.0868
     13 C8          1.7084    2.1353   -0.0028 C.2       1 <0>         0.1421
     14 N3          2.6725    1.2444   -0.0172 N.2       1 <0>        -0.3070
     15 N4          3.8135    1.8360   -0.0248 N.2       1 <0>        -0.2968
     16 C9          3.6474    3.1283   -0.0157 C.2       1 <0>         0.1974
     17 N5          2.3006    3.3656   -0.0073 N.pl3     1 <0>        -0.4186
     18 C10         1.6320    4.6691   -0.0009 C.3       1 <0>         0.0509
     19 C11         1.4156    5.1157    1.4220 C.2       1 <0>         0.4558
     20 O3          1.7822    4.4168    2.3369 O.co2     1 <0>        -0.6121
     21 C12         4.7375    4.1689   -0.0201 C.3       1 <0>        -0.0330
     22 C13         5.0921    4.5298   -1.4640 C.3       1 <0>        -0.1175
     23 C14         6.1988    5.5863   -1.4685 C.3       1 <0>        -0.1501
     24 H1         -5.3738   -8.1062    0.8999 H         1 <0>         0.0545
     25 H2         -6.9236   -8.1224    0.0245 H         1 <0>         0.0558
     26 H3         -5.3908   -8.0966   -0.8800 H         1 <0>         0.0542
     27 H4         -6.4319   -5.8637    0.9220 H         1 <0>         0.0664
     28 H5         -6.4489   -5.8542   -0.8578 H         1 <0>         0.0661
     29 H6         -3.9762   -6.0372   -0.8824 H         1 <0>         0.0700
     30 H7         -3.9592   -6.0468    0.8974 H         1 <0>         0.0703
     31 H8         -5.0173   -3.8043    0.9196 H         1 <0>         0.0701
     32 H9         -5.0343   -3.7948   -0.8603 H         1 <0>         0.0698
     33 H10        -2.3870   -4.2690    0.0019 H         1 <0>         0.3988
     34 H11        -0.8943   -2.4742   -0.0027 H         1 <0>         0.4124
     35 H12         0.5123   -0.3556   -0.8948 H         1 <0>         0.1300
     36 H13         0.5293   -0.3651    0.8851 H         1 <0>         0.1319
     37 H14         2.2534    5.3987   -0.5202 H         1 <0>         0.1045
     38 H15         0.6697    4.5864   -0.5061 H         1 <0>         0.1025
     39 H16         4.3909    5.0603    0.5026 H         1 <0>         0.0861
     40 H17         5.6198    3.7729    0.4826 H         1 <0>         0.0971
     41 H18         5.4386    3.6384   -1.9868 H         1 <0>         0.0685
     42 H19         4.2097    4.9258   -1.9667 H         1 <0>         0.0605
     43 H20         6.4514    5.8434   -2.4972 H         1 <0>         0.0553
     44 H21         5.8522    6.4778   -0.9458 H         1 <0>         0.0576
     45 H22         7.0811    5.1903   -0.9659 H         1 <0>         0.0568
     46 O4          0.8155    6.2899    1.6730 O.co2     1 <0>        -0.7477
@<TRIPOS>BOND
     1    1    2 1
     2    1   24 1
     3    1   25 1
     4    1   26 1
     5    2    3 1
     6    2   27 1
     7    2   28 1
     8    3    4 1
     9    3   29 1
    10    3   30 1
    11    4    5 1
    12    4   31 1
    13    4   32 1
    14    5    6 am
    15    5   33 1
    16    6    7 2
    17    6    8 am
    18    8    9 am
    19    8   34 1
    20    9   10 2
    21    9   11 1
    22   11   12 1
    23   11   35 1
    24   11   36 1
    25   12   13 1
    26   13   17 1
    27   13   14 2
    28   14   15 1
    29   15   16 2
    30   16   17 1
    31   16   21 1
    32   17   18 1
    33   18   19 1
    34   18   37 1
    35   18   38 1
    36   19   20 2
    37   19   46 1
    38   21   22 1
    39   21   39 1
    40   21   40 1
    41   22   23 1
    42   22   41 1
    43   22   42 1
    44   23   43 1
    45   23   44 1
    46   23   45 1
@<TRIPOS>MOLECULE
ZINC13442579
   52    54     0     0     0
SMALL
USER_CHARGES
(2S)-2-[[(4S)-3-acetylthiazolidine-4-carbonyl]amino]-3-[4-[(3,5-dichloropyridine-4-carbonyl)amino]phenyl]propanoic acid
@<TRIPOS>ATOM
      1 C1         -4.4352    5.8379   -8.0700 C.3       1 <0>        -0.1656
      2 C2         -4.2777    6.1107   -6.5963 C.2       1 <0>         0.5206
      3 O1         -5.1866    6.6164   -5.9726 O.2       1 <0>        -0.4957
      4 N1         -3.1267    5.7925   -5.9714 N.am      1 <0>        -0.6064
      5 C3         -1.9939    5.1746   -6.6945 C.3       1 <0>         0.1652
      6 S1         -0.5794    5.6198   -5.5931 S.3       1 <0>        -0.2802
      7 C4         -1.5410    5.6290   -4.0145 C.3       1 <0>        -0.0525
      8 C5         -2.9342    6.0388   -4.5523 C.3       1 <0>         0.1142
      9 H1         -3.0774    7.1033   -4.3663 H         1 <0>         0.1095
     10 C6         -3.9853    5.2763   -3.7876 C.2       1 <0>         0.5153
     11 O2         -4.7269    4.5147   -4.3715 O.2       1 <0>        -0.5230
     12 N2         -4.1012    5.4406   -2.4550 N.am      1 <0>        -0.6944
     13 C7         -5.1230    4.6993   -1.7116 C.3       1 <0>         0.1139
     14 H2         -5.2492    3.7113   -2.1543 H         1 <0>         0.0881
     15 C8         -4.6863    4.5525   -0.2526 C.3       1 <0>        -0.0757
     16 C9         -3.4456    3.6999   -0.1830 C.ar      1 <0>        -0.0702
     17 C10        -2.1975    4.2909   -0.2560 C.ar      1 <0>        -0.1008
     18 C11        -1.0584    3.5125   -0.1925 C.ar      1 <0>        -0.1360
     19 C12        -1.1675    2.1346   -0.0552 C.ar      1 <0>         0.1253
     20 C13        -2.4227    1.5437    0.0120 C.ar      1 <0>        -0.1112
     21 C14        -3.5577    2.3285   -0.0459 C.ar      1 <0>        -0.0946
     22 N3         -0.0162    1.3436    0.0094 N.am      1 <0>        -0.6532
     23 C15        -0.0086    0.2247    0.7609 C.2       1 <0>         0.5629
     24 O3         -0.9663   -0.0449    1.4590 O.2       1 <0>        -0.4828
     25 C16         1.1655   -0.6753    0.7359 C.ar      1 <0>        -0.0660
     26 C17         2.2290   -0.4961    1.6284 C.ar      1 <0>        -0.0547
     27 C18         3.3039   -1.3643    1.5728 C.ar      1 <0>         0.1225
     28 N4          3.3398   -2.3416    0.6893 N.ar      1 <0>        -0.4407
     29 C19         2.3633   -2.5429   -0.1726 C.ar      1 <0>         0.1232
     30 C20         1.2470   -1.7267   -0.1848 C.ar      1 <0>        -0.0538
     31 Cl1        -0.0337   -2.0020   -1.3240 Cl        1 <0>        -0.0168
     32 Cl2         2.1957    0.7920    2.7918 Cl        1 <0>        -0.0197
     33 C21        -6.4298    5.4474   -1.7720 C.2       1 <0>         0.4562
     34 O4         -6.5004    6.4925   -2.3741 O.co2     1 <0>        -0.6174
     35 H3         -3.5219    5.3847   -8.4554 H         1 <0>         0.0734
     36 H4         -5.2723    5.1575   -8.2262 H         1 <0>         0.0979
     37 H5         -4.6254    6.7743   -8.5945 H         1 <0>         0.0947
     38 H6         -1.8737    5.6149   -7.6843 H         1 <0>         0.1196
     39 H7         -2.1137    4.0932   -6.7610 H         1 <0>         0.0968
     40 H8         -1.1514    6.3711   -3.3176 H         1 <0>         0.1294
     41 H9         -1.5672    4.6382   -3.5608 H         1 <0>         0.1079
     42 H10        -3.5080    6.0497   -1.9880 H         1 <0>         0.3879
     43 H11        -5.4845    4.0798    0.3197 H         1 <0>         0.0994
     44 H12        -4.4744    5.5371    0.1641 H         1 <0>         0.0734
     45 H13        -2.1133    5.3623   -0.3623 H         1 <0>         0.1243
     46 H14        -0.0840    3.9746   -0.2492 H         1 <0>         0.1233
     47 H15        -2.5109    0.4722    0.1142 H         1 <0>         0.1302
     48 H16        -4.5339    1.8701    0.0115 H         1 <0>         0.1298
     49 H17         0.7757    1.5979   -0.4897 H         1 <0>         0.4105
     50 H18         4.1274   -1.2369    2.2597 H         1 <0>         0.1815
     51 H19         2.4357   -3.3567   -0.8788 H         1 <0>         0.1820
     52 O5         -7.5154    4.9526   -1.1568 O.co2     1 <0>        -0.7677
@<TRIPOS>BOND
     1    1    2 1
     2    1   35 1
     3    1   36 1
     4    1   37 1
     5    2    3 2
     6    2    4 am
     7    4    8 1
     8    4    5 1
     9    5    6 1
    10    5   38 1
    11    5   39 1
    12    6    7 1
    13    7    8 1
    14    7   40 1
    15    7   41 1
    16    8    9 1
    17    8   10 1
    18   10   11 2
    19   10   12 am
    20   12   13 1
    21   12   42 1
    22   13   14 1
    23   13   15 1
    24   13   33 1
    25   15   16 1
    26   15   43 1
    27   15   44 1
    28   16   21 ar
    29   16   17 ar
    30   17   18 ar
    31   17   45 1
    32   18   19 ar
    33   18   46 1
    34   19   20 ar
    35   19   22 1
    36   20   21 ar
    37   20   47 1
    38   21   48 1
    39   22   23 am
    40   22   49 1
    41   23   24 2
    42   23   25 1
    43   25   30 ar
    44   25   26 ar
    45   26   27 ar
    46   26   32 1
    47   27   28 ar
    48   27   50 1
    49   28   29 ar
    50   29   30 ar
    51   29   51 1
    52   30   31 1
    53   33   34 2
    54   33   52 1
@<TRIPOS>MOLECULE
ZINC31160847
   56    57     0     0     0
SMALL
USER_CHARGES
(3R,5aR,6S,8R,9R,9aS)-9-hydroxy-8-(hydroxymethyl)-6-(6-methylheptanoyloxy)-2,3,4,5a,6,8,9,9a-octahydropyrano[3,4-b][1,4]dioxepine-3-carboxylic acid
@<TRIPOS>ATOM
      1 C1         -4.2626   -0.2379   11.6310 C.3       1 <0>        -0.1495
      2 C2         -4.5425   -0.3170   10.1289 C.3       1 <0>        -0.0985
      3 C3         -5.9859    0.1107    9.8558 C.3       1 <0>        -0.1513
      4 C4         -3.5848    0.6135    9.3820 C.3       1 <0>        -0.1155
      5 C5         -3.7794    0.4420    7.8742 C.3       1 <0>        -0.1220
      6 C6         -2.8217    1.3726    7.1273 C.3       1 <0>        -0.1090
      7 C7         -3.0163    1.2011    5.6194 C.3       1 <0>        -0.1147
      8 C8         -2.0730    2.1177    4.8838 C.2       1 <0>         0.4603
      9 O1         -1.3222    2.8345    5.5020 O.2       1 <0>        -0.4927
     10 O2         -2.0670    2.1377    3.5416 O.3       1 <0>        -0.3273
     11 C9         -1.1323    3.0450    2.9001 C.3       1 <0>         0.2842
     12 H1         -0.1265    2.9012    3.3216 H         1 <0>         0.0824
     13 C10        -1.1595    2.8027    1.3892 C.3       1 <0>         0.0595
     14 H2         -2.1742    2.8078    0.9645 H         1 <0>         0.0913
     15 C11        -0.4150    3.8608    0.6184 C.3       1 <0>         0.0827
     16 H3          0.6496    3.5903    0.6775 H         1 <0>         0.0762
     17 C12        -0.7178    5.2723    1.1404 C.3       1 <0>         0.1101
     18 H4         -1.7282    5.5876    0.8409 H         1 <0>         0.0812
     19 C13        -0.5775    5.3352    2.6585 C.3       1 <0>         0.0687
     20 H5          0.4314    5.0533    2.9940 H         1 <0>         0.0836
     21 O3         -1.4956    4.3841    3.2141 O.3       1 <0>        -0.3729
     22 C14        -0.9215    6.7411    3.1546 C.3       1 <0>         0.0963
     23 O4         -0.6758    6.8237    4.5599 O.3       1 <0>        -0.5862
     24 O5          0.1941    6.1981    0.5460 O.3       1 <0>        -0.5747
     25 O6         -0.8017    3.8717   -0.7540 O.3       1 <0>        -0.3757
     26 C15        -0.2267    2.9592   -1.6381 C.3       1 <0>         0.0891
     27 C16        -0.6505    1.5387   -1.2664 C.3       1 <0>        -0.2020
     28 H6         -1.7394    1.5159   -1.1120 H         1 <0>         0.0878
     29 C17        -0.0127    1.0858    0.0080 C.3       1 <0>         0.0909
     30 O7         -0.5849    1.4955    1.2126 O.3       1 <0>        -0.3848
     31 C18        -0.2496    0.6017   -2.3765 C.2       1 <0>         0.4773
     32 O8          0.3489    1.0244   -3.3372 O.co2     1 <0>        -0.6316
     33 O9         -0.5574   -0.7024   -2.2979 O.co2     1 <0>        -0.7578
     34 H7         -3.2249   -0.5454   11.8273 H         1 <0>         0.0538
     35 H8         -4.9511   -0.9069   12.1680 H         1 <0>         0.0527
     36 H9         -4.4106    0.7955   11.9776 H         1 <0>         0.0536
     37 H10        -4.3945   -1.3504    9.7823 H         1 <0>         0.0695
     38 H11        -6.1871    0.0538    8.7758 H         1 <0>         0.0586
     39 H12        -6.1339    1.1441   10.2024 H         1 <0>         0.0535
     40 H13        -6.6744   -0.5583   10.3928 H         1 <0>         0.0515
     41 H14        -3.7937    1.6564    9.6624 H         1 <0>         0.0627
     42 H15        -2.5475    0.3629    9.6487 H         1 <0>         0.0628
     43 H16        -3.5705   -0.6009    7.5938 H         1 <0>         0.0652
     44 H17        -4.8167    0.6926    7.6075 H         1 <0>         0.0673
     45 H18        -3.0307    2.4155    7.4077 H         1 <0>         0.0718
     46 H19        -1.7844    1.1220    7.3940 H         1 <0>         0.0719
     47 H20        -2.8074    0.1582    5.3390 H         1 <0>         0.1083
     48 H21        -4.0536    1.4517    5.3527 H         1 <0>         0.1062
     49 H22        -0.2968    7.4784    2.6292 H         1 <0>         0.0629
     50 H23        -1.9827    6.9510    2.9549 H         1 <0>         0.0564
     51 H24        -0.8663    7.7645    5.0972 H         1 <0>         0.4092
     52 H25         0.1348    7.2672    0.7979 H         1 <0>         0.4034
     53 H26        -0.5601    3.1813   -2.6626 H         1 <0>         0.1144
     54 H27         0.8692    3.0371   -1.5842 H         1 <0>         0.0477
     55 H28        -0.0181   -0.0134    0.0503 H         1 <0>         0.1115
     56 H29         1.0248    1.4492    0.0482 H         1 <0>         0.0298
@<TRIPOS>BOND
     1    1    2 1
     2    1   34 1
     3    1   35 1
     4    1   36 1
     5    2    3 1
     6    2    4 1
     7    2   37 1
     8    3   38 1
     9    3   39 1
    10    3   40 1
    11    4    5 1
    12    4   41 1
    13    4   42 1
    14    5    6 1
    15    5   43 1
    16    5   44 1
    17    6    7 1
    18    6   45 1
    19    6   46 1
    20    7    8 1
    21    7   47 1
    22    7   48 1
    23    8    9 2
    24    8   10 1
    25   10   11 1
    26   11   12 1
    27   11   21 1
    28   11   13 1
    29   13   14 1
    30   13   30 1
    31   13   15 1
    32   15   16 1
    33   15   17 1
    34   15   25 1
    35   17   18 1
    36   17   19 1
    37   17   24 1
    38   19   20 1
    39   19   21 1
    40   19   22 1
    41   22   23 1
    42   22   49 1
    43   22   50 1
    44   23   51 1
    45   24   52 1
    46   25   26 1
    47   26   27 1
    48   26   53 1
    49   26   54 1
    50   27   28 1
    51   27   29 1
    52   27   31 1
    53   29   30 1
    54   29   55 1
    55   29   56 1
    56   31   32 2
    57   31   33 1
@<TRIPOS>MOLECULE
ZINC13413731
   57    60     0     0     0
SMALL
USER_CHARGES

@<TRIPOS>ATOM
      1 C1         -0.0173    1.4248    0.0099 C.3       1 <0>         0.0318
      2 O1          0.0021   -0.0041    0.0020 O.3       1 <0>        -0.3778
      3 C2          0.6734   -0.5824    1.1231 C.3       1 <0>         0.0416
      4 C3          0.6327   -2.1077    1.0107 C.3       1 <0>         0.0911
      5 N1          1.4013   -2.5316   -0.1622 N.am      1 <0>        -0.5225
      6 C4          0.7870   -2.6461   -1.3628 C.2       1 <0>         0.5582
      7 O2         -0.3988   -2.4030   -1.4912 O.2       1 <0>        -0.4928
      8 C5          1.6054   -3.0744   -2.5053 C.ar      1 <0>        -0.2055
      9 C6          1.0671   -3.2219   -3.7828 C.ar      1 <0>        -0.0368
     10 C7          1.8739   -3.6231   -4.8117 C.ar      1 <0>        -0.1497
     11 C8          3.2211   -3.8843   -4.5969 C.ar      1 <0>        -0.0716
     12 C9          3.7746   -3.7478   -3.3552 C.ar      1 <0>        -0.1175
     13 C10         2.9760   -3.3392   -2.2828 C.ar      1 <0>         0.1755
     14 N2          3.4812   -3.1913   -1.0417 N.2       1 <0>        -0.5407
     15 C11         2.7340   -2.8031   -0.0378 C.2       1 <0>         0.3607
     16 S1          3.4818   -2.6304    1.5482 S.3       1 <0>         0.0721
     17 C12         5.2168   -3.0789    1.2666 C.3       1 <0>        -0.1375
     18 C13         5.9799   -2.9720    2.5617 C.2       1 <0>         0.5325
     19 O3          5.4095   -2.6272    3.5749 O.2       1 <0>        -0.5348
     20 N3          7.2962   -3.2596    2.5939 N.am      1 <0>        -0.6782
     21 C14         8.0380   -3.1557    3.8529 C.3       1 <0>         0.0863
     22 H1          7.6447   -2.3250    4.4389 H         1 <0>         0.0852
     23 C15         9.5188   -2.9128    3.5539 C.3       1 <0>        -0.0404
     24 C16         9.6826   -1.5735    2.8828 C.2       1 <0>        -0.1455
     25 C17         9.7390   -1.3440    1.5614 C.2       1 <0>         0.0373
     26 N4          9.8927   -0.0048    1.3266 N.pl3     1 <0>        -0.5982
     27 H2          9.9584    0.4031    0.4489 H         1 <0>         0.4114
     28 C18         9.9400    0.6777    2.5215 C.ar      1 <0>         0.0962
     29 C19         9.8042   -0.2743    3.5487 C.ar      1 <0>        -0.0997
     30 C20         9.8109    0.1351    4.8832 C.ar      1 <0>        -0.0603
     31 C21         9.9461    1.4610    5.1853 C.ar      1 <0>        -0.1535
     32 C22        10.0763    2.4044    4.1757 C.ar      1 <0>        -0.1004
     33 C23        10.0815    2.0212    2.8521 C.ar      1 <0>        -0.1390
     34 C24         7.8865   -4.4364    4.6325 C.2       1 <0>         0.4910
     35 O4          7.3789   -5.4130    4.1079 O.co2     1 <0>        -0.6867
     36 O5          8.2715   -4.4961    5.7878 O.co2     1 <0>        -0.6934
     37 H3          1.0053    1.8021    0.0021 H         1 <0>         0.0396
     38 H4         -0.5445    1.7859   -0.8732 H         1 <0>         0.0846
     39 H5         -0.5275    1.7763    0.9067 H         1 <0>         0.0426
     40 H6          1.7103   -0.2468    1.1385 H         1 <0>         0.0618
     41 H7          0.1775   -0.2725    2.0430 H         1 <0>         0.0742
     42 H8          1.0656   -2.5499    1.9080 H         1 <0>         0.1167
     43 H9         -0.4012   -2.4369    0.9060 H         1 <0>         0.1137
     44 H10         0.0206   -3.0213   -3.9587 H         1 <0>         0.1345
     45 H11         1.4588   -3.7384   -5.8020 H         1 <0>         0.1292
     46 H12         3.8401   -4.2004   -5.4235 H         1 <0>         0.1307
     47 H13         4.8237   -3.9540   -3.2030 H         1 <0>         0.1373
     48 H14         5.2719   -4.1025    0.8958 H         1 <0>         0.1274
     49 H15         5.6522   -2.4023    0.5313 H         1 <0>         0.1205
     50 H16         7.7524   -3.5354    1.7835 H         1 <0>         0.3910
     51 H17        10.0842   -2.9240    4.4856 H         1 <0>         0.0906
     52 H18         9.8896   -3.6974    2.8944 H         1 <0>         0.0704
     53 H19         9.6733   -2.1040    0.7969 H         1 <0>         0.1659
     54 H20         9.7094   -0.5933    5.6741 H         1 <0>         0.1264
     55 H21         9.9513    1.7773    6.2180 H         1 <0>         0.1200
     56 H22        10.1816    3.4487    4.4303 H         1 <0>         0.1201
     57 H23        10.1822    2.7630    2.0737 H         1 <0>         0.1141
@<TRIPOS>BOND
     1    1    2 1
     2    1   37 1
     3    1   38 1
     4    1   39 1
     5    2    3 1
     6    3    4 1
     7    3   40 1
     8    3   41 1
     9    4    5 1
    10    4   42 1
    11    4   43 1
    12    5   15 1
    13    5    6 am
    14    6    7 2
    15    6    8 1
    16    8   13 ar
    17    8    9 ar
    18    9   10 ar
    19    9   44 1
    20   10   11 ar
    21   10   45 1
    22   11   12 ar
    23   11   46 1
    24   12   13 ar
    25   12   47 1
    26   13   14 1
    27   14   15 2
    28   15   16 1
    29   16   17 1
    30   17   18 1
    31   17   48 1
    32   17   49 1
    33   18   19 2
    34   18   20 am
    35   20   21 1
    36   20   50 1
    37   21   22 1
    38   21   23 1
    39   21   34 1
    40   23   24 1
    41   23   51 1
    42   23   52 1
    43   24   29 1
    44   24   25 2
    45   25   26 1
    46   25   53 1
    47   26   27 1
    48   26   28 1
    49   28   33 ar
    50   28   29 ar
    51   29   30 ar
    52   30   31 ar
    53   30   54 1
    54   31   32 ar
    55   31   55 1
    56   32   33 ar
    57   32   56 1
    58   33   57 1
    59   34   35 2
    60   34   36 1
@<TRIPOS>MOLECULE
ZINC01557649
   43    45     0     0     0
SMALL
USER_CHARGES
N-[(4-chlorophenyl)carbamoyl]-1-[3,4-dihydroxy-5-(hydroxymethyl)tetrahydrofuran-2-yl]-triazole-4-carboxamide
@<TRIPOS>ATOM
      1 C1         -1.1054    2.9121    0.7806 C.ar      1 <0>        -0.1077
      2 C2          0.0856    3.6113    0.7890 C.ar      1 <0>        -0.0876
      3 C3          1.1587    3.1615    0.0398 C.ar      1 <0>        -0.0496
      4 C4          1.0415    2.0106   -0.7195 C.ar      1 <0>        -0.0891
      5 C5         -0.1475    1.3080   -0.7317 C.ar      1 <0>        -0.1313
      6 C6         -1.2238    1.7537    0.0240 C.ar      1 <0>         0.1655
      7 N1         -2.4279    1.0398    0.0187 N.am      1 <0>        -0.6770
      8 C7         -3.6004    1.6951    0.1295 C.2       1 <0>         0.6987
      9 O1         -3.6190    2.9104    0.1369 O.2       1 <0>        -0.5068
     10 N2         -4.7522    1.0028    0.2323 N.am      1 <0>        -0.6767
     11 C8         -5.9247    1.6581    0.3431 C.2       1 <0>         0.6191
     12 O2         -5.9433    2.8735    0.3505 O.2       1 <0>        -0.4556
     13 C9         -7.1847    0.9007    0.4555 C.2       1 <0>        -0.1145
     14 C10        -8.4341    1.4416    0.5729 C.2       1 <0>         0.1295
     15 N3         -9.3000    0.4112    0.6478 N.pl3     1 <0>        -0.3612
     16 N4         -8.5395   -0.7643    0.5725 N.2       1 <0>        -0.0265
     17 N5         -7.2994   -0.4386    0.4540 N.2       1 <0>        -0.1992
     18 C11       -10.7561    0.5022    0.7817 C.3       1 <0>         0.3226
     19 H1        -11.0776    0.1027    1.7436 H         1 <0>         0.1334
     20 C12       -11.4588   -0.2434   -0.3813 C.3       1 <0>         0.0410
     21 H2        -10.9117   -0.1115   -1.3148 H         1 <0>         0.0947
     22 C13       -12.8318    0.4730   -0.4409 C.3       1 <0>         0.0482
     23 H3        -13.5845   -0.1054    0.0948 H         1 <0>         0.1012
     24 C14       -12.5867    1.8220    0.2626 C.3       1 <0>         0.0931
     25 H4        -13.2059    1.8942    1.1567 H         1 <0>         0.1071
     26 O3        -11.1966    1.8682    0.6256 O.3       1 <0>        -0.3482
     27 C15       -12.9139    2.9730   -0.6909 C.3       1 <0>         0.0881
     28 O4        -12.7798    4.2166    0.0000 O.3       1 <0>        -0.5705
     29 O5        -13.2340    0.6815   -1.7962 O.3       1 <0>        -0.5464
     30 O6        -11.6164   -1.6306   -0.0764 O.3       1 <0>        -0.5352
     31 Cl1         2.6545    4.0424    0.0530 Cl        1 <0>        -0.0683
     32 H5         -1.9426    3.2635    1.3655 H         1 <0>         0.1458
     33 H6          0.1797    4.5096    1.3811 H         1 <0>         0.1387
     34 H7          1.8804    1.6617   -1.3034 H         1 <0>         0.1393
     35 H8         -0.2386    0.4100   -1.3248 H         1 <0>         0.1374
     36 H9         -2.4183    0.0734   -0.0648 H         1 <0>         0.4132
     37 H10        -4.7373    0.0329    0.2265 H         1 <0>         0.4197
     38 H11        -8.6805    2.4927    0.6007 H         1 <0>         0.2122
     39 H12       -12.2264    2.9510   -1.5364 H         1 <0>         0.0608
     40 H13       -13.9369    2.8662   -1.0516 H         1 <0>         0.0743
     41 H14       -12.9726    4.9920   -0.5447 H         1 <0>         0.3869
     42 H15       -13.4018   -0.1348   -2.2866 H         1 <0>         0.3891
     43 H16       -12.0513   -2.1397   -0.7740 H         1 <0>         0.3917
@<TRIPOS>BOND
     1    1    6 ar
     2    1    2 ar
     3    1   32 1
     4    2    3 ar
     5    2   33 1
     6    3    4 ar
     7    3   31 1
     8    4    5 ar
     9    4   34 1
    10    5    6 ar
    11    5   35 1
    12    6    7 1
    13    7    8 am
    14    7   36 1
    15    8    9 2
    16    8   10 am
    17   10   11 am
    18   10   37 1
    19   11   12 2
    20   11   13 1
    21   13   17 1
    22   13   14 2
    23   14   15 1
    24   14   38 1
    25   15   16 1
    26   15   18 1
    27   16   17 2
    28   18   19 1
    29   18   26 1
    30   18   20 1
    31   20   21 1
    32   20   22 1
    33   20   30 1
    34   22   23 1
    35   22   24 1
    36   22   29 1
    37   24   25 1
    38   24   26 1
    39   24   27 1
    40   27   28 1
    41   27   39 1
    42   27   40 1
    43   28   41 1
    44   29   42 1
    45   30   43 1
@<TRIPOS>MOLECULE
ZINC08740500
   47    50     0     0     0
SMALL
USER_CHARGES
(2S,3S,4S,5S)-2-[6-amino-8-[(N'E)-N'-[(4-chlorophenyl)methylene]hydrazino]purin-9-yl]-5-(hydroxymethyl)tetrahydrofuran-3,4-diol
@<TRIPOS>ATOM
      1 C1          7.8040    4.3413   -0.0566 C.ar      1 <0>        -0.0664
      2 C2          8.4961    5.5341   -0.0519 C.ar      1 <0>        -0.1132
      3 C3          9.8809    5.5348   -0.0652 C.ar      1 <0>        -0.0210
      4 C4         10.5800    4.3393   -0.0777 C.ar      1 <0>        -0.1139
      5 C5          9.9002    3.1395   -0.0767 C.ar      1 <0>        -0.0782
      6 C6          8.5032    3.1317   -0.0634 C.ar      1 <0>        -0.0462
      7 C7          7.7698    1.8525   -0.0627 C.2       1 <0>         0.0983
      8 N1          6.4718    1.8486   -0.0503 N.2       1 <0>        -0.1926
      9 N2          5.7749    0.6331   -0.0497 N.pl3     1 <0>        -0.5409
     10 C8          4.3946    0.6289   -0.0365 C.2       1 <0>         0.5658
     11 N3          3.6374    1.6981   -0.0236 N.2       1 <0>        -0.4771
     12 C9          2.3335    1.3264   -0.0131 C.ar      1 <0>        -0.0679
     13 C10         1.1117    2.0197    0.0023 C.ar      1 <0>         0.4437
     14 N4         -0.0158    1.3164    0.0093 N.ar      1 <0>        -0.5396
     15 C11         0.0021   -0.0041    0.0020 C.ar      1 <0>         0.3391
     16 N5          1.1228   -0.6951   -0.0124 N.ar      1 <0>        -0.5294
     17 C12         2.2992   -0.0777   -0.0203 C.ar      1 <0>         0.3071
     18 N6          3.6104   -0.4927   -0.0351 N.pl3     1 <0>        -0.4799
     19 C13         4.0810   -1.8800   -0.0466 C.3       1 <0>         0.3090
     20 H1          3.2621   -2.5599   -0.2816 H         1 <0>         0.1371
     21 C14         4.7275   -2.2484    1.3131 C.3       1 <0>         0.0732
     22 H2          5.2882   -1.4059    1.7181 H         1 <0>         0.0880
     23 C15         5.6773   -3.4052    0.9178 C.3       1 <0>         0.0453
     24 H3          5.2112   -4.3688    1.1238 H         1 <0>         0.1031
     25 C16         5.8870   -3.2206   -0.5977 C.3       1 <0>         0.0484
     26 H4          5.5011   -4.0877   -1.1336 H         1 <0>         0.1025
     27 O1          5.1628   -2.0421   -0.9889 O.3       1 <0>        -0.3541
     28 C17         7.3762   -3.0399   -0.8986 C.3       1 <0>         0.0803
     29 O2          7.5714   -2.9694   -2.3124 O.3       1 <0>        -0.5613
     30 O3          6.9208   -3.2910    1.6124 O.3       1 <0>        -0.5504
     31 O4          3.7391   -2.6953    2.2433 O.3       1 <0>        -0.5343
     32 N7          1.0829    3.4048    0.0096 N.pl3     1 <0>        -0.7503
     33 Cl1        10.7444    7.0408   -0.0666 Cl        1 <0>        -0.0642
     34 H5          6.7241    4.3421   -0.0505 H         1 <0>         0.1464
     35 H6          7.9569    6.4698   -0.0426 H         1 <0>         0.1391
     36 H7         11.6599    4.3467   -0.0880 H         1 <0>         0.1392
     37 H8         10.4465    2.2079   -0.0865 H         1 <0>         0.1379
     38 H9          8.3126    0.9189   -0.0725 H         1 <0>         0.1219
     39 H10         6.2624   -0.2054   -0.0585 H         1 <0>         0.4006
     40 H11        -0.9373   -0.5369    0.0085 H         1 <0>         0.2106
     41 H12         7.7311   -2.1187   -0.4365 H         1 <0>         0.0576
     42 H13         7.9334   -3.8861   -0.4966 H         1 <0>         0.0677
     43 H14         8.4944   -2.8548   -2.5768 H         1 <0>         0.3870
     44 H15         7.5751   -3.9567    1.3597 H         1 <0>         0.3890
     45 H16         4.0949   -2.9375    3.1092 H         1 <0>         0.3948
     46 H17         0.5970    3.7324   -0.8007 H         1 <0>         0.3657
     47 H18         1.9127    3.9072    0.0043 H         1 <0>         0.3828
@<TRIPOS>BOND
     1    1    6 ar
     2    1    2 ar
     3    1   34 1
     4    2    3 ar
     5    2   35 1
     6    3    4 ar
     7    3   33 1
     8    4    5 ar
     9    4   36 1
    10    5    6 ar
    11    5   37 1
    12    6    7 1
    13    7    8 2
    14    7   38 1
    15    8    9 1
    16    9   10 1
    17    9   39 1
    18   10   18 1
    19   10   11 2
    20   11   12 1
    21   12   17 ar
    22   12   13 ar
    23   13   14 ar
    24   13   32 1
    25   14   15 ar
    26   15   16 ar
    27   15   40 1
    28   16   17 ar
    29   17   18 1
    30   18   19 1
    31   19   20 1
    32   19   27 1
    33   19   21 1
    34   21   22 1
    35   21   23 1
    36   21   31 1
    37   23   24 1
    38   23   25 1
    39   23   30 1
    40   25   26 1
    41   25   27 1
    42   25   28 1
    43   28   29 1
    44   28   41 1
    45   28   42 1
    46   29   43 1
    47   30   44 1
    48   31   45 1
    49   32   46 1
    50   32   47 1
@<TRIPOS>MOLECULE
ZINC14671741
   52    54     0     0     0
SMALL
USER_CHARGES
9-amino-10-cyano-7-[2-[(4-methoxyphenyl)amino]-2-oxo-ethyl]sulfanyl-8-azaspiro[4.5]deca-6,9-diene-6-carboxamide
@<TRIPOS>ATOM
      1 C1          0.2338    3.8269    2.2469 C.3       1 <0>         0.0227
      2 O1          1.1995    3.2896    1.3409 O.3       1 <0>        -0.3160
      3 C2          1.2174    1.9387    1.1876 C.ar      1 <0>         0.1176
      4 C3          2.1298    1.3510    0.3236 C.ar      1 <0>        -0.1311
      5 C4          2.1489   -0.0209    0.1677 C.ar      1 <0>        -0.0801
      6 C5          1.2545   -0.8122    0.8760 C.ar      1 <0>         0.1078
      7 C6          0.3415   -0.2234    1.7407 C.ar      1 <0>        -0.1012
      8 C7          0.3235    1.1486    1.8956 C.ar      1 <0>        -0.1896
      9 N1          1.2730   -2.2042    0.7180 N.am      1 <0>        -0.6757
     10 C8          2.4372   -2.8400    0.4794 C.2       1 <0>         0.5342
     11 O2          3.4804   -2.2214    0.4956 O.2       1 <0>        -0.4987
     12 C9          2.4428   -4.3194    0.1925 C.3       1 <0>        -0.1811
     13 S1          4.1435   -4.8740   -0.0836 S.3       1 <0>         0.0353
     14 C10         3.8614   -6.5866   -0.3870 C.2       1 <0>         0.1262
     15 C11         4.9154   -7.4060   -0.6561 C.2       1 <0>        -0.1861
     16 C12         4.7191   -8.8729   -0.9082 C.3       1 <0>         0.1015
     17 C13         5.6040   -9.3130   -2.0914 C.3       1 <0>        -0.1212
     18 C14         6.8868   -9.8649   -1.4208 C.3       1 <0>        -0.1259
     19 C15         6.3336  -10.5885   -0.1680 C.3       1 <0>        -0.1149
     20 C16         5.1814   -9.6828    0.3145 C.3       1 <0>        -0.1119
     21 C17         3.2821   -9.1838   -1.2111 C.2       1 <0>        -0.2657
     22 C18         2.2915   -8.2989   -0.9265 C.2       1 <0>         0.4947
     23 N2          2.5793   -7.0809   -0.3555 N.pl3     1 <0>        -0.6648
     24 N3          0.9876   -8.6237   -1.2127 N.pl3     1 <0>        -0.8815
     25 C19         2.9485  -10.4396   -1.8130 C.1       1 <0>         0.2800
     26 N4          2.6839  -11.4358   -2.2906 N.1       1 <0>        -0.4643
     27 C20         6.2111   -6.8693   -0.6943 C.2       1 <0>         0.5828
     28 O3          6.9703   -7.0420    0.2439 O.2       1 <0>        -0.5338
     29 N5          6.6165   -6.1629   -1.7681 N.am      1 <0>        -0.8695
     30 H1          0.3278    4.9225    2.2756 H         1 <0>         0.1034
     31 H2          0.4074    3.4175    3.2530 H         1 <0>         0.0571
     32 H3         -0.7770    3.5543    1.9094 H         1 <0>         0.0569
     33 H4          2.8284    1.9663   -0.2240 H         1 <0>         0.1363
     34 H5          2.8590   -0.4782   -0.5053 H         1 <0>         0.1409
     35 H6         -0.3547   -0.8383    2.2917 H         1 <0>         0.1294
     36 H7         -0.3863    1.6067    2.5684 H         1 <0>         0.1335
     37 H8          0.3373   -2.7782    0.7887 H         1 <0>         0.4350
     38 H9          2.0151   -4.8607    1.0493 H         1 <0>         0.1224
     39 H10         1.8410   -4.5210   -0.7059 H         1 <0>         0.1267
     40 H11         5.0790  -10.0834   -2.6752 H         1 <0>         0.0670
     41 H12         5.8145   -8.4457   -2.7344 H         1 <0>         0.0662
     42 H13         7.3984  -10.5481   -2.1147 H         1 <0>         0.0625
     43 H14         7.5567   -9.0299   -1.1679 H         1 <0>         0.0715
     44 H15         5.9800  -11.5912   -0.4500 H         1 <0>         0.0605
     45 H16         7.1304  -10.6790    0.5849 H         1 <0>         0.0658
     46 H17         5.5257   -8.9951    1.1010 H         1 <0>         0.0768
     47 H18         4.3423  -10.2840    0.6947 H         1 <0>         0.0646
     48 H19         1.7784   -6.5020    0.1277 H         1 <0>         0.4301
     49 H20         0.1807   -7.9117   -0.9848 H         1 <0>         0.4194
     50 H21         0.7505   -9.5958   -1.6698 H         1 <0>         0.4430
     51 H22         7.6324   -5.7421   -1.7981 H         1 <0>         0.4224
     52 H23         5.9315   -6.0071   -2.6146 H         1 <0>         0.4188
@<TRIPOS>BOND
     1    1    2 1
     2    1   30 1
     3    1   31 1
     4    1   32 1
     5    2    3 1
     6    3    8 ar
     7    3    4 ar
     8    4    5 ar
     9    4   33 1
    10    5    6 ar
    11    5   34 1
    12    6    7 ar
    13    6    9 1
    14    7    8 ar
    15    7   35 1
    16    8   36 1
    17    9   10 am
    18    9   37 1
    19   10   11 2
    20   10   12 1
    21   12   13 1
    22   12   38 1
    23   12   39 1
    24   13   14 1
    25   14   23 1
    26   14   15 2
    27   15   16 1
    28   15   27 1
    29   16   20 1
    30   16   17 1
    31   16   21 1
    32   17   18 1
    33   17   40 1
    34   17   41 1
    35   18   19 1
    36   18   42 1
    37   18   43 1
    38   19   20 1
    39   19   44 1
    40   19   45 1
    41   20   46 1
    42   20   47 1
    43   21   22 2
    44   21   25 1
    45   22   23 1
    46   22   24 1
    47   23   48 1
    48   24   49 1
    49   24   50 1
    50   25   26 3
    51   27   28 2
    52   27   29 am
    53   29   51 1
    54   29   52 1
@<TRIPOS>MOLECULE
ZINC39016476
   49    52     0     0     0
SMALL
USER_CHARGES

@<TRIPOS>ATOM
      1 C1         -0.0173    1.4248    0.0099 C.3       1 <0>         0.0244
      2 O1          0.0021   -0.0041    0.0020 O.3       1 <0>        -0.3152
      3 C2          0.6257   -0.6182    1.0413 C.ar      1 <0>         0.1421
      4 C3          1.2017    0.1416    2.0504 C.ar      1 <0>        -0.2101
      5 C4          1.8349   -0.4789    3.1067 C.ar      1 <0>        -0.0402
      6 C5          1.8963   -1.8704    3.1606 C.ar      1 <0>        -0.0765
      7 C6          1.3170   -2.6306    2.1459 C.ar      1 <0>        -0.0593
      8 C7          0.6806   -2.0045    1.0948 C.ar      1 <0>        -0.1540
      9 C8          2.5772   -2.5410    4.2952 C.2       1 <0>         0.0394
     10 C9          2.6969   -3.8750    4.4399 C.2       1 <0>        -0.1853
     11 C10         3.4625   -4.0323    5.7416 C.3       1 <0>        -0.0068
     12 H1          2.8667   -4.5752    6.4753 H         1 <0>         0.1502
     13 N1          3.6789   -2.6417    6.1740 N.2       1 <0>        -0.0981
     14 N2          3.1732   -1.8961    5.3324 N.2       1 <0>        -0.1604
     15 C11         4.7971   -4.7409    5.5012 C.3       1 <0>         0.2186
     16 H2          4.6374   -5.6885    4.9867 H         1 <0>         0.0643
     17 N3          5.7138   -3.8718    4.7178 N.3       1 <0>        -0.4655
     18 N4          7.0449   -4.3909    5.0691 N.3       1 <0>        -0.4807
     19 C12         6.9415   -4.7322    6.5062 C.3       1 <0>         0.2410
     20 H3          7.3144   -3.9076    7.1137 H         1 <0>         0.1652
     21 N5          5.5059   -4.9601    6.7832 N.3       1 <0>        -0.3523
     22 N6          5.2758   -6.3062    7.2824 N.3       1 <0>        -0.6997
     23 S1          7.8876   -6.2397    6.8568 S.3       1 <0>        -0.1289
     24 C13         7.1415   -7.4882    5.7727 C.3       1 <0>        -0.1442
     25 C14         7.8442   -8.8070    5.9673 C.2       1 <0>         0.5260
     26 O2          8.7584   -8.8960    6.7593 O.2       1 <0>        -0.4446
     27 N7          7.4568   -9.8876    5.2611 N.am      1 <0>        -0.6203
     28 C15         8.1050  -11.1041    5.4406 C.2       1 <0>         0.2690
     29 N8          9.1020  -11.3874    6.2507 N.2       1 <0>        -0.5199
     30 C16         9.6125  -12.6036    6.3051 C.2       1 <0>         0.0627
     31 C17         9.0635  -13.5392    5.4919 C.2       1 <0>        -0.2406
     32 S2          7.8001  -12.5739    4.6796 S.3       1 <0>         0.1099
     33 H4          1.0053    1.8021    0.0021 H         1 <0>         0.0587
     34 H5         -0.5445    1.7859   -0.8732 H         1 <0>         0.1030
     35 H6         -0.5275    1.7763    0.9067 H         1 <0>         0.0585
     36 H7          1.1541    1.2197    2.0080 H         1 <0>         0.1346
     37 H8          2.2831    0.1127    3.8912 H         1 <0>         0.1390
     38 H9          1.3630   -3.7089    2.1849 H         1 <0>         0.1297
     39 H10         0.2280   -2.5930    0.3105 H         1 <0>         0.1361
     40 H11         2.3329   -4.6514    3.7833 H         1 <0>         0.1699
     41 H12         5.5400   -3.9622    3.7280 H         1 <0>         0.3536
     42 H13         7.2717   -5.2060    4.5193 H         1 <0>         0.3170
     43 H14         5.7586   -6.4555    8.1557 H         1 <0>         0.3817
     44 H15         4.2887   -6.4923    7.3786 H         1 <0>         0.3535
     45 H16         6.0856   -7.5993    6.0194 H         1 <0>         0.1511
     46 H17         7.2407   -7.1734    4.7339 H         1 <0>         0.0988
     47 H18         6.7257   -9.8165    4.6277 H         1 <0>         0.4254
     48 H19        10.4312  -12.8426    6.9677 H         1 <0>         0.1780
     49 H20         9.3179  -14.5819    5.3714 H         1 <0>         0.2011
@<TRIPOS>BOND
     1    1    2 1
     2    1   33 1
     3    1   34 1
     4    1   35 1
     5    2    3 1
     6    3    8 ar
     7    3    4 ar
     8    4    5 ar
     9    4   36 1
    10    5    6 ar
    11    5   37 1
    12    6    7 ar
    13    6    9 1
    14    7    8 ar
    15    7   38 1
    16    8   39 1
    17    9   14 1
    18    9   10 2
    19   10   11 1
    20   10   40 1
    21   11   12 1
    22   11   13 1
    23   11   15 1
    24   13   14 2
    25   15   16 1
    26   15   21 1
    27   15   17 1
    28   17   18 1
    29   17   41 1
    30   18   19 1
    31   18   42 1
    32   19   20 1
    33   19   21 1
    34   19   23 1
    35   21   22 1
    36   22   43 1
    37   22   44 1
    38   23   24 1
    39   24   25 1
    40   24   45 1
    41   24   46 1
    42   25   26 2
    43   25   27 am
    44   27   28 1
    45   27   47 1
    46   28   32 1
    47   28   29 2
    48   29   30 1
    49   30   31 2
    50   30   48 1
    51   31   32 1
    52   31   49 1
@<TRIPOS>MOLECULE
ZINC45644576
   60    62     0     0     0
SMALL
USER_CHARGES

@<TRIPOS>ATOM
      1 C1          0.4882   -0.9838    1.1616 C.3       1 <0>        -0.1192
      2 C2          1.6778   -1.7948    1.6068 C.ar      1 <0>        -0.0684
      3 C3          2.1899   -2.7802    0.7832 C.ar      1 <0>        -0.1328
      4 C4          3.2809   -3.5240    1.1915 C.ar      1 <0>        -0.1079
      5 C5          3.8605   -3.2823    2.4233 C.ar      1 <0>        -0.1370
      6 C6          3.3491   -2.2966    3.2461 C.ar      1 <0>        -0.0587
      7 C7          2.2604   -1.5496    2.8359 C.ar      1 <0>        -0.1111
      8 C8          1.7061   -0.4713    3.7309 C.3       1 <0>         0.2319
      9 H1          1.3391    0.3541    3.1208 H         1 <0>         0.1042
     10 C9          2.8088    0.0346    4.6631 C.3       1 <0>        -0.1659
     11 C10         2.2895    1.1951    5.4721 C.2       1 <0>         0.5220
     12 O1          1.1497    1.5798    5.3182 O.2       1 <0>        -0.5381
     13 N1          3.0918    1.8056    6.3666 N.am      1 <0>        -0.7297
     14 C11         2.5869    2.9338    7.1531 C.3       1 <0>         0.1478
     15 C12         2.7430    4.2264    6.3487 C.3       1 <0>        -0.1445
     16 C13         2.1825    5.3988    7.1600 C.3       1 <0>         0.1321
     17 N2          2.8404    5.4222    8.4735 N.am      1 <0>        -0.6258
     18 C14         2.8284    4.2019    9.2916 C.3       1 <0>         0.1144
     19 C15         3.3816    3.0429    8.4564 C.3       1 <0>        -0.1443
     20 C16         3.4439    6.5418    8.9194 C.2       1 <0>         0.7083
     21 O2          3.3702    7.5701    8.2747 O.2       1 <0>        -0.5677
     22 N3          4.1292    6.5216   10.0797 N.am      1 <0>        -0.6857
     23 C17         4.7854    7.6747   10.5250 C.ar      1 <0>         0.1609
     24 C18         4.2646    8.9284   10.2328 C.ar      1 <0>        -0.1235
     25 C19         4.9143   10.0644   10.6741 C.ar      1 <0>        -0.1003
     26 C20         6.0823    9.9544   11.4062 C.ar      1 <0>        -0.1378
     27 C21         6.6037    8.7075   11.6984 C.ar      1 <0>        -0.1000
     28 C22         5.9556    7.5675   11.2649 C.ar      1 <0>        -0.1506
     29 N4          0.6047   -1.0167    4.5282 N.am      1 <0>        -0.7286
     30 C23         0.7914   -2.1322    5.2611 C.2       1 <0>         0.7065
     31 O3          1.9013   -2.6198    5.3543 O.2       1 <0>        -0.5888
     32 N5         -0.2523   -2.7072    5.8909 N.am      1 <0>        -0.8697
     33 H2          0.8315   -0.1030    0.6189 H         1 <0>         0.0719
     34 H3         -0.1412   -1.5896    0.5098 H         1 <0>         0.0664
     35 H4         -0.0861   -0.6721    2.0340 H         1 <0>         0.0659
     36 H5          1.7371   -2.9690   -0.1789 H         1 <0>         0.1196
     37 H6          3.6804   -4.2943    0.5485 H         1 <0>         0.1191
     38 H7          4.7125   -3.8640    2.7426 H         1 <0>         0.1191
     39 H8          3.8017   -2.1080    4.2085 H         1 <0>         0.1295
     40 H9          3.1141   -0.7684    5.3340 H         1 <0>         0.1186
     41 H10         3.6648    0.3585    4.0711 H         1 <0>         0.1028
     42 H11         4.0034    1.4980    6.4897 H         1 <0>         0.4009
     43 H12         1.5334    2.7740    7.3824 H         1 <0>         0.0913
     44 H13         3.7987    4.4000    6.1403 H         1 <0>         0.0697
     45 H14         2.1959    4.1391    5.4100 H         1 <0>         0.0843
     46 H15         2.3802    6.3336    6.6356 H         1 <0>         0.0997
     47 H16         1.1080    5.2714    7.2918 H         1 <0>         0.0725
     48 H17         3.4522    4.3470   10.1736 H         1 <0>         0.0811
     49 H18         1.8066    3.9769    9.5972 H         1 <0>         0.0794
     50 H19         3.2890    2.1132    9.0179 H         1 <0>         0.0857
     51 H20         4.4313    3.2276    8.2281 H         1 <0>         0.0758
     52 H21         4.1675    5.7079   10.6062 H         1 <0>         0.4049
     53 H22         3.3526    9.0150    9.6608 H         1 <0>         0.1422
     54 H23         4.5100   11.0398   10.4469 H         1 <0>         0.1254
     55 H24         6.5885   10.8443   11.7501 H         1 <0>         0.1229
     56 H25         7.5163    8.6248   12.2701 H         1 <0>         0.1259
     57 H26         6.3608    6.5937   11.4975 H         1 <0>         0.1230
     58 H27        -0.2588   -0.5749    4.5286 H         1 <0>         0.4017
     59 H28        -1.1378   -2.3182    5.8166 H         1 <0>         0.3957
     60 H29        -0.1180   -3.5101    6.4184 H         1 <0>         0.4135
@<TRIPOS>BOND
     1    1    2 1
     2    1   33 1
     3    1   34 1
     4    1   35 1
     5    2    7 ar
     6    2    3 ar
     7    3    4 ar
     8    3   36 1
     9    4    5 ar
    10    4   37 1
    11    5    6 ar
    12    5   38 1
    13    6    7 ar
    14    6   39 1
    15    7    8 1
    16    8    9 1
    17    8   10 1
    18    8   29 1
    19   10   11 1
    20   10   40 1
    21   10   41 1
    22   11   12 2
    23   11   13 am
    24   13   14 1
    25   13   42 1
    26   14   19 1
    27   14   15 1
    28   14   43 1
    29   15   16 1
    30   15   44 1
    31   15   45 1
    32   16   17 1
    33   16   46 1
    34   16   47 1
    35   17   18 1
    36   17   20 am
    37   18   19 1
    38   18   48 1
    39   18   49 1
    40   19   50 1
    41   19   51 1
    42   20   21 2
    43   20   22 am
    44   22   23 1
    45   22   52 1
    46   23   28 ar
    47   23   24 ar
    48   24   25 ar
    49   24   53 1
    50   25   26 ar
    51   25   54 1
    52   26   27 ar
    53   26   55 1
    54   27   28 ar
    55   27   56 1
    56   28   57 1
    57   29   30 am
    58   29   58 1
    59   30   31 2
    60   30   32 am
    61   32   59 1
    62   32   60 1
@<TRIPOS>MOLECULE
ZINC05897740
   62    64     0     0     0
SMALL
USER_CHARGES
2-[[2-(2-carboxycyclohexyl)carbonylaminocyclohexyl]carbamoyl]cyclohexane-1-carboxylic acid
@<TRIPOS>ATOM
      1 C1          2.6520    3.6501   -1.2530 C.3       1 <0>        -0.1146
      2 C2          3.8282    2.6718   -1.2695 C.3       1 <0>        -0.1184
      3 C3          3.7710    1.7845   -0.0244 C.3       1 <0>        -0.0971
      4 C4          2.4566    1.0015   -0.0160 C.3       1 <0>        -0.1075
      5 H1          2.3988    0.3789   -0.9088 H         1 <0>         0.0694
      6 C5          1.2803    1.9798    0.0005 C.3       1 <0>        -0.0836
      7 H2          1.3381    2.6024    0.8933 H         1 <0>         0.0916
      8 C6          1.3375    2.8671   -1.2446 C.3       1 <0>        -0.1095
      9 C7         -0.0144    1.2086    0.0087 C.2       1 <0>         0.5334
     10 O1          0.0021   -0.0041    0.0020 O.2       1 <0>        -0.5131
     11 N1         -1.1906    1.8666    0.0178 N.am      1 <0>        -0.7341
     12 C8         -2.4492    1.1169    0.0197 C.3       1 <0>         0.1433
     13 H3         -2.3279    0.2045    0.6037 H         1 <0>         0.0906
     14 C9         -2.8299    0.7557   -1.4175 C.3       1 <0>        -0.1248
     15 C10        -3.0003    2.0364   -2.2371 C.3       1 <0>        -0.1155
     16 C11        -4.1045    2.8953   -1.6176 C.3       1 <0>        -0.1138
     17 C12        -3.7239    3.2564   -0.1804 C.3       1 <0>        -0.1303
     18 C13        -3.5535    1.9758    0.6393 C.3       1 <0>         0.1476
     19 H4         -4.4900    1.4180    0.6407 H         1 <0>         0.0916
     20 N2         -3.1890    2.3216    2.0154 N.am      1 <0>        -0.7368
     21 C14        -4.1501    2.6149    2.9137 C.2       1 <0>         0.5422
     22 O2         -5.3166    2.5924    2.5827 O.2       1 <0>        -0.5144
     23 C15        -3.7751    2.9706    4.3293 C.3       1 <0>        -0.0854
     24 H5         -3.1395    3.8561    4.3252 H         1 <0>         0.0882
     25 C16        -3.0187    1.8027    4.9653 C.3       1 <0>        -0.1129
     26 C17        -3.9109    0.5598    4.9711 C.3       1 <0>        -0.1175
     27 C18        -5.1789    0.8460    5.7779 C.3       1 <0>        -0.1162
     28 C19        -5.9354    2.0139    5.1419 C.3       1 <0>        -0.1076
     29 C20        -5.0432    3.2568    5.1361 C.3       1 <0>        -0.1070
     30 H6         -4.7720    3.5141    6.1600 H         1 <0>         0.0655
     31 C21        -5.7883    4.4072    4.5096 C.2       1 <0>         0.4796
     32 O3         -5.3501    4.9431    3.5194 O.co2     1 <0>        -0.6326
     33 C22         2.4003    0.1275    1.2104 C.2       1 <0>         0.4786
     34 O4          1.5106    0.2722    2.0150 O.co2     1 <0>        -0.6287
     35 H7          2.6927    4.2822   -2.1400 H         1 <0>         0.0563
     36 H8          2.7097    4.2727   -0.3601 H         1 <0>         0.0618
     37 H9          3.7705    2.0492   -2.1623 H         1 <0>         0.0573
     38 H10         4.7647    3.2296   -1.2754 H         1 <0>         0.0543
     39 H11         4.6090    1.0875   -0.0361 H         1 <0>         0.0686
     40 H12         3.8288    2.4070    0.8685 H         1 <0>         0.0538
     41 H13         1.2798    2.2445   -2.1375 H         1 <0>         0.0615
     42 H14         0.4995    3.5641   -1.2329 H         1 <0>         0.0598
     43 H15        -1.2037    2.8365    0.0232 H         1 <0>         0.3925
     44 H16        -2.0432    0.1438   -1.8588 H         1 <0>         0.0693
     45 H17        -3.7664    0.1979   -1.4161 H         1 <0>         0.0674
     46 H18        -3.2715    1.7791   -3.2610 H         1 <0>         0.0559
     47 H19        -2.0638    2.5941   -2.2385 H         1 <0>         0.0626
     48 H20        -5.0410    2.3375   -1.6161 H         1 <0>         0.0618
     49 H21        -4.2259    3.8076   -2.2015 H         1 <0>         0.0595
     50 H22        -4.5106    3.8683    0.2610 H         1 <0>         0.0786
     51 H23        -2.7874    3.8142   -0.1818 H         1 <0>         0.0580
     52 H24        -2.2560    2.3396    2.2801 H         1 <0>         0.3973
     53 H25        -2.1153    1.5988    4.3905 H         1 <0>         0.0656
     54 H26        -2.7475    2.0600    5.9892 H         1 <0>         0.0665
     55 H27        -3.3719   -0.2723    5.4242 H         1 <0>         0.0572
     56 H28        -4.1821    0.3025    3.9472 H         1 <0>         0.0585
     57 H29        -4.9078    1.1033    6.8018 H         1 <0>         0.0531
     58 H30        -5.8146   -0.0395    5.7820 H         1 <0>         0.0511
     59 H31        -6.8388    2.2178    5.7167 H         1 <0>         0.0588
     60 H32        -6.2066    1.7566    4.1180 H         1 <0>         0.0833
     61 O5         -6.9388    4.8364    5.0517 O.co2     1 <0>        -0.7858
     62 O6          3.3384   -0.8118    1.4088 O.co2     1 <0>        -0.7845
@<TRIPOS>BOND
     1    1    8 1
     2    1    2 1
     3    1   35 1
     4    1   36 1
     5    2    3 1
     6    2   37 1
     7    2   38 1
     8    3    4 1
     9    3   39 1
    10    3   40 1
    11    4    5 1
    12    4    6 1
    13    4   33 1
    14    6    7 1
    15    6    8 1
    16    6    9 1
    17    8   41 1
    18    8   42 1
    19    9   10 2
    20    9   11 am
    21   11   12 1
    22   11   43 1
    23   12   13 1
    24   12   18 1
    25   12   14 1
    26   14   15 1
    27   14   44 1
    28   14   45 1
    29   15   16 1
    30   15   46 1
    31   15   47 1
    32   16   17 1
    33   16   48 1
    34   16   49 1
    35   17   18 1
    36   17   50 1
    37   17   51 1
    38   18   19 1
    39   18   20 1
    40   20   21 am
    41   20   52 1
    42   21   22 2
    43   21   23 1
    44   23   24 1
    45   23   29 1
    46   23   25 1
    47   25   26 1
    48   25   53 1
    49   25   54 1
    50   26   27 1
    51   26   55 1
    52   26   56 1
    53   27   28 1
    54   27   57 1
    55   27   58 1
    56   28   29 1
    57   28   59 1
    58   28   60 1
    59   29   30 1
    60   29   31 1
    61   31   32 2
    62   31   61 1
    63   33   34 2
    64   33   62 1
@<TRIPOS>MOLECULE
ZINC13277330
   42    43     0     0     0
SMALL
USER_CHARGES
1-[4-(carboxymethyloxyamino)-3-nitro-phenyl]sulfonylpiperidine-4-carboxylic acid
@<TRIPOS>ATOM
      1 C1         -2.2491    2.7545    4.8683 C.ar      1 <0>         0.0589
      2 C2         -1.5404    2.5838    3.6950 C.ar      1 <0>        -0.1886
      3 C3         -0.4581    1.7141    3.6595 C.ar      1 <0>         0.3417
      4 C4         -0.0955    1.0143    4.8037 C.ar      1 <0>        -0.1429
      5 C5         -0.8047    1.1940    5.9747 C.ar      1 <0>         0.0891
      6 C6         -1.8820    2.0608    6.0066 C.ar      1 <0>        -0.7351
      7 S1         -2.7884    2.2820    7.5013 S.o2      1 <0>         2.6989
      8 O1         -1.9109    1.9343    8.5636 O.2       1 <0>        -0.9562
      9 O2         -3.4113    3.5561    7.4138 O.2       1 <0>        -0.9537
     10 N1         -4.0058    1.1593    7.5064 N.pl3     1 <0>        -0.9919
     11 C7         -5.3196    1.4772    6.9306 C.3       1 <0>         0.1172
     12 C8         -6.4010    1.1924    7.9712 C.3       1 <0>        -0.1070
     13 C9         -6.2631   -0.2494    8.4655 C.3       1 <0>        -0.1276
     14 C10        -4.8947   -0.4358    9.1249 C.3       1 <0>        -0.1056
     15 C11        -3.7945   -0.1714    8.0923 C.3       1 <0>         0.1153
     16 C12        -7.3483   -0.5419    9.4695 C.2       1 <0>         0.4659
     17 O3         -7.0572   -0.8661   10.5964 O.co2     1 <0>        -0.6414
     18 N2          1.0534    0.0819    4.7689 N.pl3     1 <0>         0.0394
     19 O4          1.2508   -0.6048    3.7825 O.2       1 <0>        -0.1841
     20 O5          1.8016    0.0014    5.7267 O.3       1 <0>        -0.1455
     21 N3          0.2607    1.5392    2.4748 N.pl3     1 <0>        -0.5883
     22 O6         -0.2192    2.0995    1.2662 O.3       1 <0>        -0.1151
     23 C13         0.6150    1.8424    0.1348 C.3       1 <0>        -0.0118
     24 C14         0.0118    2.4812   -1.0896 C.2       1 <0>         0.4818
     25 O7         -1.0260    3.0938   -1.0023 O.co2     1 <0>        -0.6088
     26 H1         -3.0910    3.4303    4.8964 H         1 <0>         0.1572
     27 H2         -1.8279    3.1257    2.8061 H         1 <0>         0.1639
     28 H3         -0.5208    0.6534    6.8656 H         1 <0>         0.1614
     29 H4         -5.3511    2.5304    6.6516 H         1 <0>         0.0904
     30 H5         -5.4919    0.8585    6.0499 H         1 <0>         0.0695
     31 H6         -7.3847    1.3307    7.5226 H         1 <0>         0.0830
     32 H7         -6.2839    1.8775    8.8108 H         1 <0>         0.0607
     33 H8         -6.3556   -0.9330    7.6216 H         1 <0>         0.0702
     34 H9         -4.8064   -1.4563    9.4975 H         1 <0>         0.0742
     35 H10        -4.7918    0.2647    9.9537 H         1 <0>         0.0672
     36 H11        -3.8399   -0.9273    7.3083 H         1 <0>         0.0664
     37 H12        -2.8201   -0.2055    8.5797 H         1 <0>         0.0880
     38 H13         1.0887    1.0338    2.4800 H         1 <0>         0.4166
     39 H14         0.6965    0.7665   -0.0196 H         1 <0>         0.0745
     40 H15         1.6061    2.2602    0.3117 H         1 <0>         0.0699
     41 O8         -8.6382   -0.4424    9.1117 O.co2     1 <0>        -0.7735
     42 O9          0.6275    2.3697   -2.2771 O.co2     1 <0>        -0.7441
@<TRIPOS>BOND
     1    1    6 ar
     2    1    2 ar
     3    1   26 1
     4    2    3 ar
     5    2   27 1
     6    3    4 ar
     7    3   21 1
     8    4    5 ar
     9    4   18 1
    10    5    6 ar
    11    5   28 1
    12    6    7 1
    13    7    8 2
    14    7    9 2
    15    7   10 1
    16   10   15 1
    17   10   11 1
    18   11   12 1
    19   11   29 1
    20   11   30 1
    21   12   13 1
    22   12   31 1
    23   12   32 1
    24   13   14 1
    25   13   16 1
    26   13   33 1
    27   14   15 1
    28   14   34 1
    29   14   35 1
    30   15   36 1
    31   15   37 1
    32   16   17 2
    33   16   41 1
    34   18   19 2
    35   18   20 1
    36   21   22 1
    37   21   38 1
    38   22   23 1
    39   23   24 1
    40   23   39 1
    41   23   40 1
    42   24   25 2
    43   24   42 1
@<TRIPOS>MOLECULE
ZINC17324464
   49    52     0     0     0
SMALL
USER_CHARGES

@<TRIPOS>ATOM
      1 C1         -0.0166    1.3714    0.0096 C.ar      1 <0>        -0.0929
      2 C2          1.1657    2.1008    0.0022 C.ar      1 <0>        -0.1338
      3 C3          2.3839    1.4577   -0.0114 C.ar      1 <0>        -0.0631
      4 C4          2.4261    0.0644   -0.0182 C.ar      1 <0>        -0.1516
      5 C5          1.2267   -0.6833   -0.0134 C.ar      1 <0>        -0.0067
      6 C6          0.0021   -0.0041    0.0020 C.ar      1 <0>        -0.1123
      7 C7          1.2707   -2.1431   -0.0274 C.2       1 <0>        -0.0337
      8 C8          2.4208   -2.8114    0.2065 C.2       1 <0>        -0.5741
      9 C9          3.6524   -2.0563    0.4834 C.2       1 <0>         0.0038
     10 N1          4.6603   -2.5902    1.1553 N.2       1 <0>        -0.1076
     11 N2          5.7251   -1.8973    1.3792 N.pl3     1 <0>        -0.4867
     12 C10         6.7840   -2.4583    2.0851 C.ar      1 <0>         0.2003
     13 C11         6.6953   -3.7701    2.5446 C.ar      1 <0>        -0.1382
     14 C12         7.7411   -4.3281    3.2439 C.ar      1 <0>        -0.0207
     15 C13         8.8946   -3.5762    3.4926 C.ar      1 <0>         0.0166
     16 C14         8.9804   -2.2588    3.0292 C.ar      1 <0>        -0.0636
     17 C15         7.9329   -1.7088    2.3260 C.ar      1 <0>        -0.1666
     18 N3          9.9334   -4.1264    4.1861 N.2       1 <0>        -0.2017
     19 N4         10.9961   -3.4318    4.4146 N.2       1 <0>        -0.2249
     20 C16        12.0363   -3.9827    5.1091 C.ar      1 <0>         0.0688
     21 C17        11.9547   -5.3003    5.5683 C.ar      1 <0>        -0.1236
     22 C18        13.0085   -5.8496    6.2679 C.ar      1 <0>        -0.0394
     23 C19        14.1447   -5.0994    6.5161 C.ar      1 <0>        -0.6350
     24 C20        14.2326   -3.7940    6.0650 C.ar      1 <0>        -0.0415
     25 C21        13.1894   -3.2332    5.3586 C.ar      1 <0>        -0.0864
     26 S1         15.4858   -5.8097    7.4114 S.o2      1 <0>         2.6961
     27 O1         16.1430   -4.7228    8.1205 O.2       1 <0>        -1.0624
     28 O2         14.9137   -6.7868    8.3247 O.2       1 <0>        -1.0612
     29 O3         16.3653   -6.4303    6.4330 O.3       1 <0>        -1.0609
     30 C22         3.7062   -0.6664   -0.0295 C.2       1 <0>         0.4220
     31 O4          4.7401   -0.1613   -0.4329 O.2       1 <0>        -0.4678
     32 S2          2.4456   -4.5730    0.1806 S.o2      1 <0>         2.6887
     33 O5          3.1038   -5.0042    1.4041 O.2       1 <0>        -1.0364
     34 O6          1.0606   -5.0142    0.1242 O.2       1 <0>        -1.0627
     35 O7          3.1903   -4.9676   -1.0050 O.3       1 <0>        -1.0545
     36 H1         -0.9631    1.8913    0.0259 H         1 <0>         0.1282
     37 H2          1.1295    3.1801    0.0069 H         1 <0>         0.1279
     38 H3          3.3002    2.0293   -0.0172 H         1 <0>         0.1319
     39 H4         -0.9248   -0.5584    0.0083 H         1 <0>         0.1383
     40 H5          0.3665   -2.6986   -0.2281 H         1 <0>         0.1578
     41 H6          5.7872   -0.9851    1.0553 H         1 <0>         0.3965
     42 H7          5.8047   -4.3499    2.3522 H         1 <0>         0.1666
     43 H8          7.6714   -5.3452    3.6005 H         1 <0>         0.1450
     44 H9          9.8691   -1.6755    3.2198 H         1 <0>         0.1428
     45 H10         8.0001   -0.6933    1.9645 H         1 <0>         0.1302
     46 H11        11.0683   -5.8866    5.3759 H         1 <0>         0.1376
     47 H12        12.9469   -6.8675    6.6234 H         1 <0>         0.1373
     48 H13        15.1222   -3.2144    6.2631 H         1 <0>         0.1409
     49 H14        13.2612   -2.2159    5.0033 H         1 <0>         0.1330
@<TRIPOS>BOND
     1    1    6 ar
     2    1    2 ar
     3    1   36 1
     4    2    3 ar
     5    2   37 1
     6    3    4 ar
     7    3   38 1
     8    4   30 1
     9    4    5 ar
    10    5    6 ar
    11    5    7 1
    12    6   39 1
    13    7    8 2
    14    7   40 1
    15    8    9 1
    16    8   32 1
    17    9   10 2
    18    9   30 1
    19   10   11 1
    20   11   12 1
    21   11   41 1
    22   12   17 ar
    23   12   13 ar
    24   13   14 ar
    25   13   42 1
    26   14   15 ar
    27   14   43 1
    28   15   16 ar
    29   15   18 1
    30   16   17 ar
    31   16   44 1
    32   17   45 1
    33   18   19 2
    34   19   20 1
    35   20   25 ar
    36   20   21 ar
    37   21   22 ar
    38   21   46 1
    39   22   23 ar
    40   22   47 1
    41   23   24 ar
    42   23   26 1
    43   24   25 ar
    44   24   48 1
    45   25   49 1
    46   26   27 2
    47   26   28 2
    48   26   29 1
    49   30   31 2
    50   32   33 2
    51   32   34 2
    52   32   35 1
@<TRIPOS>MOLECULE
ZINC39646990
   46    49     0     0     0
SMALL
USER_CHARGES

@<TRIPOS>ATOM
      1 C1         -0.0184    1.5028    0.0103 C.3       1 <0>        -0.1379
      2 C2          0.0021   -0.0041    0.0020 C.2       1 <0>         0.1063
      3 C3          0.0061   -0.6913   -1.1499 C.2       1 <0>        -0.3419
      4 C4          0.0265   -2.1674   -1.0686 C.2       1 <0>         0.2830
      5 N1          0.0301   -2.8951   -2.1601 N.2       1 <0>        -0.5540
      6 C5          0.0156   -2.3368   -3.3603 C.2       1 <0>         0.4567
      7 N2         -0.0025   -1.0400   -3.5541 N.2       1 <0>        -0.6118
      8 C6         -0.0083   -0.1578   -2.5494 C.2       1 <0>         0.5590
      9 O1         -0.0256    1.0422   -2.7654 O.2       1 <0>        -0.4594
     10 C7          0.0209   -3.2390   -4.5674 C.3       1 <0>        -0.0705
     11 S1         -0.0013   -2.2313   -6.0756 S.3       1 <0>         0.1156
     12 C8          0.0072   -3.4159   -7.3800 C.2       1 <0>         0.3623
     13 N3          0.0208   -4.6883   -7.0679 N.2       1 <0>        -0.5570
     14 C9          0.0280   -5.6480   -8.0146 C.ar      1 <0>         0.1859
     15 C10         0.0420   -7.0059   -7.6817 C.ar      1 <0>        -0.1229
     16 C11         0.0485   -7.9453   -8.6738 C.ar      1 <0>        -0.0738
     17 C12         0.0418   -7.5721  -10.0117 C.ar      1 <0>        -0.1600
     18 C13         0.0280   -6.2521  -10.3690 C.ar      1 <0>        -0.0341
     19 C14         0.0207   -5.2722   -9.3773 C.ar      1 <0>        -0.2114
     20 C15         0.0054   -3.8394   -9.7019 C.2       1 <0>         0.5491
     21 O2         -0.0020   -3.4534  -10.8563 O.2       1 <0>        -0.5072
     22 N4         -0.0063   -2.9649   -8.6690 N.am      1 <0>        -0.5196
     23 C16        -0.0278   -1.5245   -8.9356 C.3       1 <0>         0.1099
     24 C17         1.4071   -1.0031   -9.0365 C.3       1 <0>        -0.1955
     25 C18         1.3850    0.4786   -9.3107 C.2       1 <0>         0.5034
     26 O3          0.3203    1.0633   -9.4157 O.co2     1 <0>        -0.6930
     27 O4          2.4318    1.0926   -9.4275 O.co2     1 <0>        -0.6984
     28 S2          0.0403   -2.5232    0.6703 S.3       1 <0>         0.0506
     29 C19         0.0250   -0.7926    1.2917 C.3       1 <0>        -0.1438
     30 H1          0.9254   -0.5750    1.8662 H         1 <0>         0.1576
     31 C20        -1.2122   -0.5255    2.1096 C.2       1 <0>         0.5249
     32 O5         -2.1715   -1.2734    2.0260 O.co2     1 <0>        -0.6422
     33 O6         -1.2539    0.4385    2.8549 O.co2     1 <0>        -0.6530
     34 H2          1.0042    1.8801    0.0026 H         1 <0>         0.0968
     35 H3         -0.5455    1.8639   -0.8728 H         1 <0>         0.1005
     36 H4         -0.5286    1.8543    0.9071 H         1 <0>         0.0987
     37 H5          0.9194   -3.8560   -4.5560 H         1 <0>         0.1338
     38 H6         -0.8604   -3.8800   -4.5458 H         1 <0>         0.1339
     39 H7          0.0481   -7.3106   -6.6456 H         1 <0>         0.1356
     40 H8          0.0593   -8.9935   -8.4139 H         1 <0>         0.1265
     41 H9          0.0478   -8.3328  -10.7784 H         1 <0>         0.1249
     42 H10         0.0225   -5.9708  -11.4117 H         1 <0>         0.1323
     43 H11        -0.5495   -1.3364   -9.8739 H         1 <0>         0.1049
     44 H12        -0.5442   -1.0124   -8.1237 H         1 <0>         0.1029
     45 H13         1.9288   -1.1912   -8.0981 H         1 <0>         0.0692
     46 H14         1.9235   -1.5152   -9.8483 H         1 <0>         0.0627
@<TRIPOS>BOND
     1    1    2 1
     2    1   34 1
     3    1   35 1
     4    1   36 1
     5    2   29 1
     6    2    3 2
     7    3    8 1
     8    3    4 1
     9    4    5 2
    10    4   28 1
    11    5    6 1
    12    6    7 2
    13    6   10 1
    14    7    8 1
    15    8    9 2
    16   10   11 1
    17   10   37 1
    18   10   38 1
    19   11   12 1
    20   12   22 1
    21   12   13 2
    22   13   14 1
    23   14   19 ar
    24   14   15 ar
    25   15   16 ar
    26   15   39 1
    27   16   17 ar
    28   16   40 1
    29   17   18 ar
    30   17   41 1
    31   18   19 ar
    32   18   42 1
    33   19   20 1
    34   20   21 2
    35   20   22 am
    36   22   23 1
    37   23   24 1
    38   23   43 1
    39   23   44 1
    40   24   25 1
    41   24   45 1
    42   24   46 1
    43   25   26 2
    44   25   27 1
    45   28   29 1
    46   29   30 1
    47   29   31 1
    48   31   32 2
    49   31   33 1
@<TRIPOS>MOLECULE
ZINC55585646
   40    41     0     0     0
SMALL
USER_CHARGES

@<TRIPOS>ATOM
      1 C1         -0.0187    1.5258    0.0104 C.3       1 <0>        -0.1479
      2 C2          0.0021   -0.0041    0.0020 C.3       1 <0>        -0.0362
      3 C3         -1.4117   -0.5257    0.0127 C.2       1 <0>        -0.1546
      4 C4         -2.2207   -0.8207   -1.0341 C.2       1 <0>        -0.1758
      5 C5         -3.4955   -1.2927   -0.7839 C.2       1 <0>        -0.0576
      6 C6         -3.8991   -1.4465    0.5009 C.2       1 <0>        -0.6410
      7 S1         -2.4530   -0.9228    1.4074 S.3       1 <0>         0.1318
      8 S2         -5.4470   -2.0207    1.1165 S.o2      1 <0>         2.6065
      9 O1         -5.5851   -1.4893    2.4272 O.2       1 <0>        -1.0306
     10 O2         -6.4043   -1.7833    0.0935 O.2       1 <0>        -1.0300
     11 N1         -5.3289   -3.6641    1.2821 N.2       1 <0>        -1.0924
     12 C7         -6.4205   -4.3999    1.7580 C.ar      1 <0>         0.2220
     13 C8         -7.6041   -3.7521    2.0857 C.ar      1 <0>        -0.2376
     14 C9         -8.6832   -4.4765    2.5558 C.ar      1 <0>        -0.1727
     15 C10        -8.5857   -5.8522    2.7015 C.ar      1 <0>         0.1815
     16 C11        -7.3995   -6.5042    2.3734 C.ar      1 <0>         0.0893
     17 C12        -6.3211   -5.7778    1.8967 C.ar      1 <0>        -0.2209
     18 O3         -7.3021   -7.8532    2.5161 O.3       1 <0>        -0.2998
     19 C13        -6.0557   -8.4549    2.1604 C.3       1 <0>         0.0335
     20 N2         -9.6813   -6.5866    3.1795 N.2       1 <0>        -1.0899
     21 S3        -11.0913   -5.8109    3.5700 S.o2      1 <0>         2.5026
     22 O4        -10.7492   -4.9624    4.6573 O.2       1 <0>        -1.0428
     23 O5        -11.5563   -5.2647    2.3433 O.2       1 <0>        -1.0429
     24 C14       -12.2072   -7.1264    4.1310 C.3       1 <0>        -0.6360
     25 H1          1.0039    1.9031    0.0027 H         1 <0>         0.0593
     26 H2         -0.5459    1.8868   -0.8726 H         1 <0>         0.0576
     27 H3         -0.5289    1.8773    0.9072 H         1 <0>         0.0590
     28 H4          0.5123   -0.3556   -0.8948 H         1 <0>         0.0819
     29 H5          0.5293   -0.3651    0.8851 H         1 <0>         0.0778
     30 H6         -1.8744   -0.6887   -2.0486 H         1 <0>         0.1292
     31 H7         -4.1603   -1.5349   -1.5999 H         1 <0>         0.1413
     32 H8         -7.6815   -2.6807    1.9735 H         1 <0>         0.0815
     33 H9         -9.6030   -3.9708    2.8101 H         1 <0>         0.0936
     34 H10        -5.4019   -6.2821    1.6377 H         1 <0>         0.1061
     35 H11        -6.1129   -9.5315    2.3213 H         1 <0>         0.0712
     36 H12        -5.8425   -8.2553    1.1103 H         1 <0>         0.0381
     37 H13        -5.2611   -8.0369    2.7784 H         1 <0>         0.0383
     38 H14       -11.7711   -7.6291    4.9943 H         1 <0>         0.1089
     39 H15       -13.1680   -6.6936    4.4096 H         1 <0>         0.0886
     40 H16       -12.3529   -7.8470    3.3263 H         1 <0>         0.1089
@<TRIPOS>BOND
     1    1    2 1
     2    1   25 1
     3    1   26 1
     4    1   27 1
     5    2    3 1
     6    2   28 1
     7    2   29 1
     8    3    7 1
     9    3    4 2
    10    4    5 1
    11    4   30 1
    12    5    6 2
    13    5   31 1
    14    6    7 1
    15    6    8 1
    16    8    9 2
    17    8   10 2
    18    8   11 1
    19   11   12 1
    20   12   17 ar
    21   12   13 ar
    22   13   14 ar
    23   13   32 1
    24   14   15 ar
    25   14   33 1
    26   15   16 ar
    27   15   20 1
    28   16   17 ar
    29   16   18 1
    30   17   34 1
    31   18   19 1
    32   19   35 1
    33   19   36 1
    34   19   37 1
    35   20   21 1
    36   21   22 2
    37   21   23 2
    38   21   24 1
    39   24   38 1
    40   24   39 1
    41   24   40 1
@<TRIPOS>MOLECULE
ZINC08821506
   39    41     0     0     0
SMALL
USER_CHARGES
2-[5-[[5-(4-nitrophenyl)-2-furyl]methylene]-4-oxo-2-thioxo-thiazolidin-3-yl]ethanesulfonic acid
@<TRIPOS>ATOM
      1 C1          4.5394    5.0256   -0.0086 C.ar      1 <0>        -0.0994
      2 C2          5.0327    6.3104   -0.0124 C.ar      1 <0>        -0.0491
      3 C3          4.1646    7.3916    0.0033 C.ar      1 <0>        -0.0027
      4 C4          2.7926    7.1914    0.0161 C.ar      1 <0>        -0.0401
      5 C5          2.2785    5.9148    0.0139 C.ar      1 <0>        -0.0915
      6 C6          3.1499    4.8115   -0.0015 C.ar      1 <0>         0.0307
      7 C7          2.6143    3.4498   -0.0041 C.2       1 <0>         0.0363
      8 C8          3.3883    2.2713   -0.0184 C.2       1 <0>        -0.1743
      9 C9          2.5294    1.2155   -0.0097 C.2       1 <0>        -0.1213
     10 C10         1.1779    1.7849    0.0004 C.2       1 <0>        -0.0423
     11 O1          1.3097    3.1302    0.0068 O.3       1 <0>        -0.0748
     12 C11        -0.0126    1.0758    0.0080 C.2       1 <0>         0.0937
     13 C12        -1.2387    1.7617    0.0175 C.2       1 <0>        -0.2753
     14 C13        -1.4985    3.2319    0.0267 C.2       1 <0>         0.5272
     15 O2         -0.5956    4.0439    0.0271 O.2       1 <0>        -0.4328
     16 N1         -2.7704    3.5988    0.0340 N.am      1 <0>        -0.5098
     17 C14        -3.7457    2.6687    0.0329 C.2       1 <0>         0.2672
     18 S1         -5.4403    2.9121    0.0404 S.2       1 <0>        -0.3191
     19 S2         -2.8537    1.1244    0.0140 S.3       1 <0>         0.1045
     20 C15        -3.1192    5.0217    0.0438 C.3       1 <0>         0.1059
     21 C16        -3.2464    5.5255   -1.3952 C.3       1 <0>        -0.6897
     22 S3         -3.6783    7.2873   -1.3831 S.o2      1 <0>         2.6391
     23 O3         -4.9920    7.4657   -0.8714 O.2       1 <0>        -1.0386
     24 O4         -2.5937    8.0537   -0.8775 O.2       1 <0>        -1.0451
     25 N2          4.7064    8.7691    0.0058 N.pl3     1 <0>        -0.0210
     26 O5          3.8861    9.7994    0.0203 O.2       1 <0>        -0.1577
     27 O6          6.0088    8.9645   -0.0063 O.3       1 <0>        -0.1749
     28 H1          5.2172    4.1848   -0.0159 H         1 <0>         0.1551
     29 H2          6.0997    6.4771   -0.0227 H         1 <0>         0.1617
     30 H3          2.1250    8.0403    0.0283 H         1 <0>         0.1675
     31 H4          1.2096    5.7610    0.0242 H         1 <0>         0.1661
     32 H5          4.4668    2.2164   -0.0293 H         1 <0>         0.1656
     33 H6          2.7909    0.1676   -0.0126 H         1 <0>         0.1708
     34 H7          0.0021   -0.0041    0.0020 H         1 <0>         0.1825
     35 H8         -4.0680    5.1596    0.5623 H         1 <0>         0.1204
     36 H9         -2.3393    5.5834    0.5579 H         1 <0>         0.1107
     37 H10        -2.2976    5.3876   -1.9137 H         1 <0>         0.1109
     38 H11        -4.0264    4.9637   -1.9093 H         1 <0>         0.1179
     39 O7         -3.7774    7.6759   -2.8513 O.3       1 <0>        -1.0745
@<TRIPOS>BOND
     1    1    6 ar
     2    1    2 ar
     3    1   28 1
     4    2    3 ar
     5    2   29 1
     6    3    4 ar
     7    3   25 1
     8    4    5 ar
     9    4   30 1
    10    5    6 ar
    11    5   31 1
    12    6    7 1
    13    7   11 1
    14    7    8 2
    15    8    9 1
    16    8   32 1
    17    9   10 2
    18    9   33 1
    19   10   11 1
    20   10   12 1
    21   12   13 2
    22   12   34 1
    23   13   19 1
    24   13   14 1
    25   14   15 2
    26   14   16 am
    27   16   17 1
    28   16   20 1
    29   17   18 2
    30   17   19 1
    31   20   21 1
    32   20   35 1
    33   20   36 1
    34   21   22 1
    35   21   37 1
    36   21   38 1
    37   22   23 2
    38   22   24 2
    39   22   39 1
    40   25   26 2
    41   25   27 1
@<TRIPOS>MOLECULE
ZINC34778750
   46    47     0     0     0
SMALL
USER_CHARGES

@<TRIPOS>ATOM
      1 C1         -0.0187    1.5258    0.0104 C.3       1 <0>        -0.1777
      2 C2          0.0021   -0.0041    0.0020 C.3       1 <0>         0.0993
      3 N1         -1.3723   -0.5112    0.0124 N.am      1 <0>        -0.6112
      4 C3         -2.0716   -0.7579   -1.2510 C.3       1 <0>         0.1118
      5 C4         -1.8159   -2.1971   -1.7029 C.3       1 <0>        -0.1668
      6 C5         -1.9934   -0.7507    1.1843 C.2       1 <0>         0.5020
      7 O1         -3.1312   -1.1705    1.1929 O.2       1 <0>        -0.5140
      8 C6         -1.2740   -0.4969    2.4840 C.3       1 <0>         0.0932
      9 N2         -2.1565   -0.8324    3.6042 N.am      1 <0>        -0.4760
     10 C7         -2.9779    0.1259    4.1263 C.2       1 <0>         0.0076
     11 C8         -3.8355   -0.1616    5.1991 C.2       1 <0>        -0.2439
     12 C9         -4.6282    0.8997    5.6477 C.2       1 <0>        -0.0234
     13 C10        -4.4839    2.1042    4.9942 C.2       1 <0>        -0.2040
     14 S1         -3.2469    1.7355    3.7664 S.3       1 <0>         0.2661
     15 C11        -5.1527    3.3287    5.2371 C.2       1 <0>         0.5570
     16 O2         -5.9854    3.4047    6.1327 O.co2     1 <0>        -0.6582
     17 O3         -4.8985    4.3120    4.5518 O.co2     1 <0>        -0.6828
     18 C12        -5.5950    0.7336    6.7917 C.3       1 <0>        -0.0974
     19 C13        -3.7810   -1.5543    5.7090 C.2       1 <0>         0.5789
     20 O4         -4.4884   -1.8987    6.6373 O.2       1 <0>        -0.4985
     21 N3         -2.9404   -2.4308    5.1320 N.am      1 <0>        -0.5494
     22 C14        -2.1519   -2.0824    4.1026 C.2       1 <0>         0.7186
     23 O5         -1.4128   -2.9142    3.6128 O.2       1 <0>        -0.5450
     24 C15        -2.8877   -3.8052    5.6365 C.3       1 <0>         0.1400
     25 C16        -3.8893   -4.6516    4.8938 C.2       1 <0>        -0.1727
     26 C17        -3.5005   -5.7459    4.2876 C.2       1 <0>        -0.1630
     27 H1          1.0039    1.9031    0.0027 H         1 <0>         0.0718
     28 H2         -0.5459    1.8868   -0.8726 H         1 <0>         0.0629
     29 H3         -0.5289    1.8773    0.9072 H         1 <0>         0.0616
     30 H4          0.5123   -0.3556   -0.8948 H         1 <0>         0.0845
     31 H5          0.5293   -0.3651    0.8851 H         1 <0>         0.0794
     32 H6         -3.1417   -0.6062   -1.1097 H         1 <0>         0.0848
     33 H7         -1.7041   -0.0678   -2.0105 H         1 <0>         0.0787
     34 H8         -2.1835   -2.8871   -0.9434 H         1 <0>         0.0591
     35 H9         -2.3362   -2.3807   -2.6429 H         1 <0>         0.0656
     36 H10        -0.7458   -2.3488   -1.8443 H         1 <0>         0.0548
     37 H11        -0.3776   -1.1152    2.5299 H         1 <0>         0.1338
     38 H12        -0.9936    0.5547    2.5447 H         1 <0>         0.1221
     39 H13        -5.0906    0.9644    7.7300 H         1 <0>         0.0651
     40 H14        -6.4380    1.4111    6.6562 H         1 <0>         0.0969
     41 H15        -5.9556   -0.2947    6.8163 H         1 <0>         0.0659
     42 H16        -1.8869   -4.2097    5.4851 H         1 <0>         0.1013
     43 H17        -3.1249   -3.8111    6.7003 H         1 <0>         0.1077
     44 H18        -4.9275   -4.3561    4.8614 H         1 <0>         0.1127
     45 H19        -2.4623   -6.0415    4.3200 H         1 <0>         0.1003
     46 H20        -4.2183   -6.3525    3.7554 H         1 <0>         0.1006
@<TRIPOS>BOND
     1    1    2 1
     2    1   27 1
     3    1   28 1
     4    1   29 1
     5    2    3 1
     6    2   30 1
     7    2   31 1
     8    3    4 1
     9    3    6 am
    10    4    5 1
    11    4   32 1
    12    4   33 1
    13    5   34 1
    14    5   35 1
    15    5   36 1
    16    6    7 2
    17    6    8 1
    18    8    9 1
    19    8   37 1
    20    8   38 1
    21    9   22 am
    22    9   10 1
    23   10   14 1
    24   10   11 2
    25   11   12 1
    26   11   19 1
    27   12   13 2
    28   12   18 1
    29   13   14 1
    30   13   15 1
    31   15   16 2
    32   15   17 1
    33   18   39 1
    34   18   40 1
    35   18   41 1
    36   19   20 2
    37   19   21 am
    38   21   22 am
    39   21   24 1
    40   22   23 2
    41   24   25 1
    42   24   42 1
    43   24   43 1
    44   25   26 2
    45   25   44 1
    46   26   45 1
    47   26   46 1
@<TRIPOS>MOLECULE
ZINC57482838
   45    46     0     0     0
SMALL
USER_CHARGES

@<TRIPOS>ATOM
      1 C1         -1.1156    1.9142    0.2851 C.3       1 <0>        -0.1428
      2 C2         -1.0619    0.3874    0.2013 C.3       1 <0>        -0.6039
      3 S1         -0.1161   -0.2624    1.6062 S.o2      1 <0>         2.5288
      4 O1          1.2512    0.1062    1.4881 O.2       1 <0>        -1.0233
      5 O2         -0.8243   -0.0398    2.8179 O.2       1 <0>        -1.0230
      6 N1         -0.1296   -1.9060    1.4046 N.2       1 <0>        -1.0925
      7 C3          0.5199   -2.7282    2.3281 C.ar      1 <0>         0.3323
      8 C4          1.1730   -2.1691    3.4195 C.ar      1 <0>        -0.2737
      9 C5          1.8137   -2.9849    4.3309 C.ar      1 <0>         0.0512
     10 C6          1.8063   -4.3571    4.1580 C.ar      1 <0>        -0.7536
     11 C7          1.1577   -4.9168    3.0727 C.ar      1 <0>         0.0456
     12 C8          0.5096   -4.1069    2.1606 C.ar      1 <0>        -0.2005
     13 C9          1.1532   -6.4124    2.8878 C.3       1 <0>        -0.1652
     14 S2          2.6257   -5.3944    5.3230 S.o2      1 <0>         2.6966
     15 O3          3.4379   -6.2863    4.5720 O.2       1 <0>        -0.9756
     16 O4          3.1587   -4.5385    6.3244 O.2       1 <0>        -0.9743
     17 N2          1.4641   -6.3175    6.0586 N.pl3     1 <0>        -0.9969
     18 C10         1.2369   -7.6962    5.6186 C.3       1 <0>         0.0788
     19 C11         0.6638   -5.7553    7.1494 C.3       1 <0>         0.1715
     20 C12        -0.6287   -5.2128    6.5961 C.ar      1 <0>         0.1009
     21 C13        -1.7641   -6.0010    6.6149 C.ar      1 <0>        -0.1659
     22 C14        -2.9480   -5.4924    6.1035 C.ar      1 <0>        -0.0808
     23 C15        -2.9456   -4.2043    5.5900 C.ar      1 <0>        -0.1717
     24 C16        -1.7717   -3.4755    5.6049 C.ar      1 <0>         0.1193
     25 N3         -0.6647   -3.9898    6.1046 N.ar      1 <0>        -0.4512
     26 H1         -0.1026    2.3154    0.2577 H         1 <0>         0.0650
     27 H2         -1.6840    2.3046   -0.5591 H         1 <0>         0.0688
     28 H3         -1.5987    2.2102    1.2163 H         1 <0>         0.0650
     29 H4         -2.0750   -0.0138    0.2286 H         1 <0>         0.1192
     30 H5         -0.5789    0.0914   -0.7299 H         1 <0>         0.1194
     31 H6          1.1797   -1.0977    3.5548 H         1 <0>         0.1051
     32 H7          2.3215   -2.5510    5.1796 H         1 <0>         0.1178
     33 H8         -0.0009   -4.5450    1.3156 H         1 <0>         0.1126
     34 H9          0.3665   -6.8519    3.5010 H         1 <0>         0.0709
     35 H10         0.9711   -6.6483    1.8393 H         1 <0>         0.0723
     36 H11         2.1186   -6.8187    3.1893 H         1 <0>         0.0964
     37 H12         1.8027   -8.3781    6.2534 H         1 <0>         0.0553
     38 H13         0.1747   -7.9301    5.6903 H         1 <0>         0.0666
     39 H14         1.5642   -7.8063    4.5847 H         1 <0>         0.0876
     40 H15         0.4475   -6.5345    7.8802 H         1 <0>         0.0946
     41 H16         1.2195   -4.9503    7.6302 H         1 <0>         0.1072
     42 H17        -1.7292   -7.0005    7.0225 H         1 <0>         0.1282
     43 H18        -3.8506   -6.0855    6.1046 H         1 <0>         0.1281
     44 H19        -3.8498   -3.7761    5.1831 H         1 <0>         0.1307
     45 H20        -1.7615   -2.4716    5.2069 H         1 <0>         0.1589
@<TRIPOS>BOND
     1    1    2 1
     2    1   26 1
     3    1   27 1
     4    1   28 1
     5    2    3 1
     6    2   29 1
     7    2   30 1
     8    3    4 2
     9    3    5 2
    10    3    6 1
    11    6    7 1
    12    7   12 ar
    13    7    8 ar
    14    8    9 ar
    15    8   31 1
    16    9   10 ar
    17    9   32 1
    18   10   11 ar
    19   10   14 1
    20   11   12 ar
    21   11   13 1
    22   12   33 1
    23   13   34 1
    24   13   35 1
    25   13   36 1
    26   14   15 2
    27   14   16 2
    28   14   17 1
    29   17   18 1
    30   17   19 1
    31   18   37 1
    32   18   38 1
    33   18   39 1
    34   19   20 1
    35   19   40 1
    36   19   41 1
    37   20   25 ar
    38   20   21 ar
    39   21   22 ar
    40   21   42 1
    41   22   23 ar
    42   22   43 1
    43   23   24 ar
    44   23   44 1
    45   24   25 ar
    46   24   45 1
@<TRIPOS>MOLECULE
ZINC65186155
   45    47     0     0     0
SMALL
USER_CHARGES

@<TRIPOS>ATOM
      1 C1         -0.0187    1.5258    0.0104 C.3       1 <0>        -0.1529
      2 C2          0.0021   -0.0041    0.0020 C.3       1 <0>        -0.0236
      3 C3          0.7074   -0.4901   -1.2379 C.2       1 <0>         0.1550
      4 N1          1.9833   -0.7341   -1.3520 N.2       1 <0>        -0.2833
      5 N2          2.2395   -1.1331   -2.5481 N.2       1 <0>        -0.2783
      6 C4          1.1266   -1.1575   -3.2438 C.2       1 <0>         0.2539
      7 O1          0.1343   -0.7558   -2.4242 O.3       1 <0>        -0.2051
      8 C5          0.9866   -1.5565   -4.6600 C.2       1 <0>         0.0886
      9 C6          2.0088   -1.9611   -5.4333 C.2       1 <0>        -0.0754
     10 C7          1.3854   -2.2594   -6.7842 C.3       1 <0>        -0.5859
     11 H1          1.5186   -3.3090   -7.0465 H         1 <0>         0.1888
     12 C8         -0.0806   -1.9445   -6.5625 C.2       1 <0>         0.2057
     13 N3         -0.1949   -1.5642   -5.3376 N.2       1 <0>        -0.4742
     14 C9         -1.1894   -2.0598   -7.5765 C.3       1 <0>        -0.1092
     15 S1          2.0894   -1.1862   -8.0661 S.o2      1 <0>         2.5478
     16 O2          1.7934    0.1743   -7.7822 O.2       1 <0>        -1.0035
     17 O3          3.4176   -1.5909   -8.3681 O.2       1 <0>        -1.0053
     18 N4          1.2214   -1.5310   -9.4336 N.2       1 <0>        -1.0895
     19 C10         1.5102   -0.8677  -10.6315 C.ar      1 <0>         0.2527
     20 C11         2.5284    0.0755  -10.6753 C.ar      1 <0>        -0.2220
     21 C12         2.8131    0.7293  -11.8580 C.ar      1 <0>        -0.0931
     22 C13         2.0824    0.4440  -13.0019 C.ar      1 <0>         0.0171
     23 C14         1.0649   -0.4977  -12.9590 C.ar      1 <0>        -0.1589
     24 C15         0.7827   -1.1566  -11.7784 C.ar      1 <0>        -0.1470
     25 O4          2.3634    1.0883  -14.1662 O.3       1 <0>        -0.3309
     26 C16         1.5712    0.7453  -15.3050 C.3       1 <0>         0.0355
     27 C17         3.4588   -2.0899   -5.0435 C.3       1 <0>        -0.1233
     28 H2          1.0039    1.9031    0.0027 H         1 <0>         0.0657
     29 H3         -0.5459    1.8868   -0.8726 H         1 <0>         0.0624
     30 H4         -0.5289    1.8773    0.9072 H         1 <0>         0.0766
     31 H5          0.5293   -0.3651    0.8851 H         1 <0>         0.1109
     32 H6         -1.0205   -0.3814    0.0098 H         1 <0>         0.0974
     33 H7         -1.6215   -3.0594   -7.5303 H         1 <0>         0.0871
     34 H8         -1.9599   -1.3205   -7.3580 H         1 <0>         0.0824
     35 H9         -0.7888   -1.8829   -8.5747 H         1 <0>         0.1318
     36 H10         3.0972    0.2980   -9.7846 H         1 <0>         0.1051
     37 H11         3.6047    1.4632  -11.8921 H         1 <0>         0.1113
     38 H12         0.4962   -0.7190  -13.8500 H         1 <0>         0.1123
     39 H13        -0.0064   -1.8932  -11.7463 H         1 <0>         0.1175
     40 H14         1.6879   -0.3164  -15.5223 H         1 <0>         0.0458
     41 H15         0.5232    0.9605  -15.0967 H         1 <0>         0.0458
     42 H16         1.8984    1.3302  -16.1646 H         1 <0>         0.0853
     43 H17         3.5819   -1.7989   -4.0003 H         1 <0>         0.1073
     44 H18         3.7793   -3.1237   -5.1726 H         1 <0>         0.0874
     45 H19         4.0641   -1.4403   -5.6758 H         1 <0>         0.0845
@<TRIPOS>BOND
     1    1    2 1
     2    1   28 1
     3    1   29 1
     4    1   30 1
     5    2    3 1
     6    2   31 1
     7    2   32 1
     8    3    7 1
     9    3    4 2
    10    4    5 1
    11    5    6 2
    12    6    7 1
    13    6    8 1
    14    8   13 1
    15    8    9 2
    16    9   10 1
    17    9   27 1
    18   10   11 1
    19   10   12 1
    20   10   15 1
    21   12   13 2
    22   12   14 1
    23   14   33 1
    24   14   34 1
    25   14   35 1
    26   15   16 2
    27   15   17 2
    28   15   18 1
    29   18   19 1
    30   19   24 ar
    31   19   20 ar
    32   20   21 ar
    33   20   36 1
    34   21   22 ar
    35   21   37 1
    36   22   23 ar
    37   22   25 1
    38   23   24 ar
    39   23   38 1
    40   24   39 1
    41   25   26 1
    42   26   40 1
    43   26   41 1
    44   26   42 1
    45   27   43 1
    46   27   44 1
    47   27   45 1
@<TRIPOS>MOLECULE
ZINC65833245
   45    46     0     0     0
SMALL
USER_CHARGES

@<TRIPOS>ATOM
      1 C1         -0.1530    1.5437    0.1392 C.3       1 <0>        -0.1483
      2 C2         -0.1118    0.0143    0.1209 C.3       1 <0>        -0.6090
      3 S1          0.7944   -0.5486   -1.3463 S.o2      1 <0>         2.4956
      4 O1          0.0599   -0.2409   -2.5232 O.2       1 <0>        -0.9366
      5 O2          2.1675   -0.1994   -1.2373 O.2       1 <0>        -0.9366
      6 C3          0.7685   -2.3076   -1.2472 C.ar      1 <0>        -0.6301
      7 C4          1.7772   -2.9772   -0.5800 C.ar      1 <0>        -0.0504
      8 C5          1.7569   -4.3572   -0.5023 C.ar      1 <0>        -0.0451
      9 C6          0.7277   -5.0676   -1.0913 C.ar      1 <0>        -0.5603
     10 C7         -0.2814   -4.3980   -1.7577 C.ar      1 <0>        -0.0451
     11 C8         -0.2634   -3.0177   -1.8318 C.ar      1 <0>        -0.0503
     12 S2          0.7025   -6.8267   -0.9933 S.o2      1 <0>         2.5903
     13 O3         -0.0749   -7.2836   -2.0915 O.2       1 <0>        -1.0247
     14 O4          2.0458   -7.2412   -0.7860 O.2       1 <0>        -1.0247
     15 N1         -0.1339   -7.2287    0.3783 N.2       1 <0>        -1.0854
     16 C9         -0.3159   -8.5735    0.7177 C.ar      1 <0>         0.2641
     17 C10         0.2096   -9.5716   -0.0926 C.ar      1 <0>        -0.2455
     18 C11         0.0298  -10.8988    0.2424 C.ar      1 <0>        -0.0950
     19 C12        -0.6768  -11.2359    1.3892 C.ar      1 <0>         0.0290
     20 C13        -1.2026  -10.2382    2.1992 C.ar      1 <0>        -0.1143
     21 C14        -1.0174   -8.9107    1.8680 C.ar      1 <0>        -0.1649
     22 N2         -0.8596  -12.5832    1.7289 N.am      1 <0>        -0.5410
     23 C15        -0.4472  -13.6360    0.7973 C.3       1 <0>         0.0698
     24 C16        -1.4148  -12.9104    2.9126 C.2       1 <0>         0.5003
     25 O5         -1.8428  -12.0414    3.6426 O.2       1 <0>        -0.5327
     26 C17        -1.5038  -14.3559    3.3293 C.3       1 <0>        -0.1737
     27 H1          0.8642    1.9342    0.1684 H         1 <0>         0.0734
     28 H2         -0.6551    1.9044   -0.7585 H         1 <0>         0.0734
     29 H3         -0.6976    1.8819    1.0208 H         1 <0>         0.0843
     30 H4          0.3903   -0.3464    1.0186 H         1 <0>         0.1375
     31 H5         -1.1290   -0.3762    0.0917 H         1 <0>         0.1375
     32 H6          2.5813   -2.4222   -0.1199 H         1 <0>         0.1460
     33 H7          2.5454   -4.8804    0.0183 H         1 <0>         0.1479
     34 H8         -1.0854   -4.9530   -2.2182 H         1 <0>         0.1479
     35 H9         -1.0538   -2.4943   -2.3492 H         1 <0>         0.1461
     36 H10         0.7586   -9.3095   -0.9850 H         1 <0>         0.0998
     37 H11         0.4384  -11.6749   -0.3877 H         1 <0>         0.1069
     38 H12        -1.7528  -10.5006    3.0908 H         1 <0>         0.1695
     39 H13        -1.4219   -8.1347    2.5009 H         1 <0>         0.1154
     40 H14         0.5543  -13.9789    1.0569 H         1 <0>         0.0603
     41 H15        -1.1450  -14.4710    0.8607 H         1 <0>         0.0737
     42 H16        -0.4443  -13.2413   -0.2187 H         1 <0>         0.0819
     43 H17        -1.1505  -14.9907    2.5167 H         1 <0>         0.0786
     44 H18        -0.8857  -14.5183    4.2123 H         1 <0>         0.0931
     45 H19        -2.5397  -14.6043    3.5602 H         1 <0>         0.0913
@<TRIPOS>BOND
     1    1    2 1
     2    1   27 1
     3    1   28 1
     4    1   29 1
     5    2    3 1
     6    2   30 1
     7    2   31 1
     8    3    4 2
     9    3    5 2
    10    3    6 1
    11    6   11 ar
    12    6    7 ar
    13    7    8 ar
    14    7   32 1
    15    8    9 ar
    16    8   33 1
    17    9   10 ar
    18    9   12 1
    19   10   11 ar
    20   10   34 1
    21   11   35 1
    22   12   13 2
    23   12   14 2
    24   12   15 1
    25   15   16 1
    26   16   21 ar
    27   16   17 ar
    28   17   18 ar
    29   17   36 1
    30   18   19 ar
    31   18   37 1
    32   19   20 ar
    33   19   22 1
    34   20   21 ar
    35   20   38 1
    36   21   39 1
    37   22   23 1
    38   22   24 am
    39   23   40 1
    40   23   41 1
    41   23   42 1
    42   24   25 2
    43   24   26 1
    44   26   43 1
    45   26   44 1
    46   26   45 1
@<TRIPOS>MOLECULE
ZINC13034066
   53    55     0     0     0
SMALL
USER_CHARGES
(2R)-2-[3-[2-[[(3R)-1,1-dioxothiolan-3-yl]-methyl-amino]-2-oxo-ethyl]sulfanyl-5-(2-thienyl)-1,2,4-triazol-4-yl]-3-methyl-butanoic acid
@<TRIPOS>ATOM
      1 C1         -1.1824    2.2200    2.5185 C.3       1 <0>        -0.1482
      2 C2         -2.0275    1.9487    1.2722 C.3       1 <0>        -0.0920
      3 C3         -3.2587    2.8569    1.2833 C.3       1 <0>        -0.1503
      4 C4         -1.1954    2.2327    0.0201 C.3       1 <0>         0.0844
      5 H1         -0.8778    3.2754    0.0237 H         1 <0>         0.1013
      6 C5         -2.0278    1.9655   -1.2074 C.2       1 <0>         0.4609
      7 O1         -3.1693    1.5867   -1.0926 O.co2     1 <0>        -0.5936
      8 N1         -0.0165    1.3631    0.0095 N.pl3     1 <0>        -0.4092
      9 C6          1.3047    1.7519   -0.0010 C.2       1 <0>         0.2545
     10 N2          2.0285    0.6542   -0.0138 N.2       1 <0>        -0.2647
     11 N3          1.2615   -0.3769   -0.0120 N.2       1 <0>        -0.3029
     12 C7          0.0021   -0.0041    0.0020 C.2       1 <0>         0.1560
     13 S1         -1.4024   -1.0680    0.0102 S.3       1 <0>         0.1237
     14 C8         -0.5767   -2.6786   -0.0066 C.3       1 <0>        -0.1673
     15 C9         -1.6118   -3.7739   -0.0022 C.2       1 <0>         0.5394
     16 O2         -2.7916   -3.4932    0.0110 O.2       1 <0>        -0.5090
     17 N4         -1.2265   -5.0653   -0.0130 N.am      1 <0>        -0.6015
     18 C10         0.1986   -5.4044   -0.0289 C.3       1 <0>         0.0644
     19 C11        -2.2328   -6.1300   -0.0087 C.3       1 <0>         0.1355
     20 H2         -3.2310   -5.6929    0.0154 H         1 <0>         0.1287
     21 C12        -2.0308   -7.0306    1.2212 C.3       1 <0>        -0.1366
     22 C13        -2.8661   -8.3248    1.0705 C.3       1 <0>        -0.5743
     23 S2         -2.9625   -8.5331   -0.7543 S.o2      1 <0>         2.3744
     24 O3         -4.3215   -8.4404   -1.1590 O.2       1 <0>        -0.9292
     25 O4         -2.1959   -9.6686   -1.1311 O.2       1 <0>        -0.9360
     26 C14        -2.0742   -7.0078   -1.2829 C.3       1 <0>        -0.5952
     27 C15         1.8106    3.1340    0.0012 C.2       1 <0>        -0.0786
     28 C16         3.0767    3.5909    0.2673 C.2       1 <0>        -0.1191
     29 C17         3.3164    4.9454    0.2075 C.2       1 <0>        -0.1568
     30 C18         2.2974    5.7849   -0.1114 C.2       1 <0>        -0.1855
     31 S3          0.9385    4.6519   -0.3494 S.3       1 <0>         0.1017
     32 H3         -0.8648    3.2627    2.5222 H         1 <0>         0.0529
     33 H4         -1.7752    2.0177    3.4106 H         1 <0>         0.0606
     34 H5         -0.3052    1.5730    2.5107 H         1 <0>         0.0452
     35 H6         -2.3451    0.9060    1.2686 H         1 <0>         0.0880
     36 H7         -3.8607    2.6636    0.3954 H         1 <0>         0.0983
     37 H8         -3.8515    2.6545    2.1753 H         1 <0>         0.0522
     38 H9         -2.9411    3.8996    1.2869 H         1 <0>         0.0433
     39 H10         0.0374   -2.7627   -0.9032 H         1 <0>         0.1262
     40 H11         0.0551   -2.7723    0.8767 H         1 <0>         0.1246
     41 H12         0.5623   -5.4940    0.9947 H         1 <0>         0.0662
     42 H13         0.3410   -6.3516   -0.5493 H         1 <0>         0.0773
     43 H14         0.7530   -4.6199   -0.5441 H         1 <0>         0.0854
     44 H15        -0.9758   -7.2892    1.3111 H         1 <0>         0.0919
     45 H16        -2.3490   -6.4968    2.1167 H         1 <0>         0.1024
     46 H17        -3.8604   -8.1951    1.4978 H         1 <0>         0.1429
     47 H18        -2.3544   -9.1707    1.5295 H         1 <0>         0.1442
     48 H19        -2.5604   -6.5464   -2.1425 H         1 <0>         0.1488
     49 H20        -1.0244   -7.2144   -1.4912 H         1 <0>         0.1445
     50 H21         3.8696    2.9019    0.5182 H         1 <0>         0.1425
     51 H22         4.3026    5.3355    0.4114 H         1 <0>         0.1366
     52 H23         2.3078    6.8610   -0.2023 H         1 <0>         0.1873
     53 O5         -1.5009    2.1482   -2.4284 O.co2     1 <0>        -0.7360
@<TRIPOS>BOND
     1    1    2 1
     2    1   32 1
     3    1   33 1
     4    1   34 1
     5    2    3 1
     6    2    4 1
     7    2   35 1
     8    3   36 1
     9    3   37 1
    10    3   38 1
    11    4    5 1
    12    4    6 1
    13    4    8 1
    14    6    7 2
    15    6   53 1
    16    8   12 1
    17    8    9 1
    18    9   10 2
    19    9   27 1
    20   10   11 1
    21   11   12 2
    22   12   13 1
    23   13   14 1
    24   14   15 1
    25   14   39 1
    26   14   40 1
    27   15   16 2
    28   15   17 am
    29   17   18 1
    30   17   19 1
    31   18   41 1
    32   18   42 1
    33   18   43 1
    34   19   20 1
    35   19   26 1
    36   19   21 1
    37   21   22 1
    38   21   44 1
    39   21   45 1
    40   22   23 1
    41   22   46 1
    42   22   47 1
    43   23   24 2
    44   23   25 2
    45   23   26 1
    46   26   48 1
    47   26   49 1
    48   27   31 1
    49   27   28 2
    50   28   29 1
    51   28   50 1
    52   29   30 2
    53   29   51 1
    54   30   31 1
    55   30   52 1
@<TRIPOS>MOLECULE
ZINC13232715
   53    55     0     0     0
SMALL
USER_CHARGES
2-[3-[(1R)-2-[[(3S)-1,1-dioxothiolan-3-yl]-methyl-amino]-1-methyl-2-oxo-ethyl]sulfanyl-5-(m-tolyl)-1,2,4-triazol-4-yl]acetic acid
@<TRIPOS>ATOM
      1 C1         -2.2342    0.9382    0.9868 C.3       1 <0>        -0.1096
      2 C2         -1.1054    1.7346    0.3846 C.ar      1 <0>        -0.0947
      3 C3         -0.0585    1.0825   -0.2430 C.ar      1 <0>        -0.1114
      4 C4          0.9785    1.8063   -0.8038 C.ar      1 <0>        -0.1113
      5 C5          0.9777    3.1845   -0.7359 C.ar      1 <0>        -0.1079
      6 C6         -0.0722    3.8480   -0.0994 C.ar      1 <0>        -0.0058
      7 C7         -1.1153    3.1116    0.4648 C.ar      1 <0>        -0.0795
      8 C8         -0.0798    5.3244   -0.0234 C.2       1 <0>         0.2270
      9 N1         -1.1250    6.0892    0.1902 N.2       1 <0>        -0.2780
     10 N2         -0.7707    7.3245    0.1973 N.2       1 <0>        -0.3007
     11 C9          0.5216    7.4245   -0.0210 C.2       1 <0>         0.1549
     12 N3          1.0063    6.1564   -0.1690 N.pl3     1 <0>        -0.4145
     13 C10         2.3935    5.7637   -0.4295 C.3       1 <0>         0.0410
     14 C11         2.6417    5.7523   -1.9158 C.2       1 <0>         0.4556
     15 O1          1.7512    6.0424   -2.6793 O.co2     1 <0>        -0.6062
     16 S1          1.4548    8.9167   -0.1063 S.3       1 <0>         0.0792
     17 C12         0.1399   10.1266    0.1820 C.3       1 <0>        -0.1123
     18 H1         -0.3736    9.8900    1.1139 H         1 <0>         0.1234
     19 C13        -0.8586   10.0804   -0.9764 C.3       1 <0>        -0.1449
     20 C14         0.7384   11.5065    0.2745 C.2       1 <0>         0.5424
     21 O2          1.7971   11.7458   -0.2666 O.2       1 <0>        -0.5103
     22 N4          0.0973   12.4747    0.9586 N.am      1 <0>        -0.5992
     23 C15        -1.1816   12.1856    1.6122 C.3       1 <0>         0.0594
     24 C16         0.6791   13.8162    1.0486 C.3       1 <0>         0.1354
     25 H2          1.6299   13.8414    0.5162 H         1 <0>         0.1284
     26 C17        -0.2869   14.8435    0.4355 C.3       1 <0>        -0.1390
     27 C18         0.1617   16.2773    0.8078 C.3       1 <0>        -0.5741
     28 S2          1.0265   16.0264    2.4114 S.o2      1 <0>         2.3744
     29 O3          2.3924   16.3885    2.2617 O.2       1 <0>        -0.9295
     30 O4          0.2563   16.6169    3.4493 O.2       1 <0>        -0.9354
     31 C19         0.9032   14.1926    2.5411 C.3       1 <0>        -0.5931
     32 H3         -1.9988    0.7018    2.0245 H         1 <0>         0.0683
     33 H4         -3.1531    1.5230    0.9468 H         1 <0>         0.0668
     34 H5         -2.3669    0.0138    0.4247 H         1 <0>         0.0652
     35 H6         -0.0533    0.0040   -0.2992 H         1 <0>         0.1232
     36 H7          1.7903    1.2916   -1.2961 H         1 <0>         0.1288
     37 H8          1.7875    3.7484   -1.1748 H         1 <0>         0.1376
     38 H9         -1.9304    3.6191    0.9591 H         1 <0>         0.1328
     39 H10         3.0680    6.4757    0.0461 H         1 <0>         0.1031
     40 H11         2.5715    4.7678   -0.0237 H         1 <0>         0.1097
     41 H12        -0.3451   10.3170   -1.9083 H         1 <0>         0.0726
     42 H13        -1.2915    9.0824   -1.0434 H         1 <0>         0.0959
     43 H14        -1.6505   10.8091   -0.8028 H         1 <0>         0.0667
     44 H15        -0.9996   11.8400    2.6298 H         1 <0>         0.0664
     45 H16        -1.7887   13.0905    1.6389 H         1 <0>         0.0794
     46 H17        -1.7080   11.4113    1.0542 H         1 <0>         0.0878
     47 H18        -0.2896   14.7353   -0.6491 H         1 <0>         0.1033
     48 H19        -1.2923   14.6681    0.8182 H         1 <0>         0.0928
     49 H20         0.8455   16.6752    0.0580 H         1 <0>         0.1430
     50 H21        -0.7007   16.9329    0.9288 H         1 <0>         0.1448
     51 H22         0.0518   13.8971    3.1542 H         1 <0>         0.1442
     52 H23         1.8290   13.7612    2.9217 H         1 <0>         0.1479
     53 O5          3.8520    5.4198   -2.3916 O.co2     1 <0>        -0.7437
@<TRIPOS>BOND
     1    1    2 1
     2    1   32 1
     3    1   33 1
     4    1   34 1
     5    2    7 ar
     6    2    3 ar
     7    3    4 ar
     8    3   35 1
     9    4    5 ar
    10    4   36 1
    11    5    6 ar
    12    5   37 1
    13    6    7 ar
    14    6    8 1
    15    7   38 1
    16    8   12 1
    17    8    9 2
    18    9   10 1
    19   10   11 2
    20   11   12 1
    21   11   16 1
    22   12   13 1
    23   13   14 1
    24   13   39 1
    25   13   40 1
    26   14   15 2
    27   14   53 1
    28   16   17 1
    29   17   18 1
    30   17   19 1
    31   17   20 1
    32   19   41 1
    33   19   42 1
    34   19   43 1
    35   20   21 2
    36   20   22 am
    37   22   23 1
    38   22   24 1
    39   23   44 1
    40   23   45 1
    41   23   46 1
    42   24   25 1
    43   24   31 1
    44   24   26 1
    45   26   27 1
    46   26   47 1
    47   26   48 1
    48   27   28 1
    49   27   49 1
    50   27   50 1
    51   28   29 2
    52   28   30 2
    53   28   31 1
    54   31   51 1
    55   31   52 1
@<TRIPOS>MOLECULE
ZINC13396262
   55    58     0     0     0
SMALL
USER_CHARGES
(2S)-1-[2-[[4-(2-furylmethyl)-5-(2-methoxyphenyl)-1,2,4-triazol-3-yl]sulfanyl]acetyl]piperidine-2-carboxylic acid
@<TRIPOS>ATOM
      1 C1         -3.1023    1.6112    8.5332 C.3       1 <0>         0.0258
      2 O1         -3.3953    1.0894    7.2355 O.3       1 <0>        -0.2955
      3 C2         -2.7910   -0.0767    6.8889 C.ar      1 <0>         0.1712
      4 C3         -1.9299   -0.7037    7.7746 C.ar      1 <0>        -0.2098
      5 C4         -1.3188   -1.8926    7.4226 C.ar      1 <0>        -0.0644
      6 C5         -1.5543   -2.4595    6.1820 C.ar      1 <0>        -0.1543
      7 C6         -2.4050   -1.8447    5.2869 C.ar      1 <0>        -0.0613
      8 C7         -3.0315   -0.6467    5.6328 C.ar      1 <0>        -0.0455
      9 C8         -3.9435    0.0171    4.6783 C.2       1 <0>         0.2302
     10 N1         -3.9282    1.2848    4.3372 N.2       1 <0>        -0.2532
     11 N2         -4.8602    1.5211    3.4846 N.2       1 <0>        -0.2963
     12 C9         -5.5281    0.4190    3.2287 C.2       1 <0>         0.1557
     13 N3         -4.9653   -0.5779    3.9748 N.pl3     1 <0>        -0.4595
     14 C10        -5.3679   -1.9858    4.0188 C.3       1 <0>         0.1900
     15 C11        -6.3053   -2.2041    5.1783 C.2       1 <0>        -0.0552
     16 C12        -7.6450   -2.0898    5.1391 C.2       1 <0>        -0.1642
     17 C13        -8.1193   -2.3821    6.4386 C.2       1 <0>        -0.2132
     18 C14        -7.0404   -2.6495    7.1961 C.2       1 <0>        -0.0283
     19 O2         -5.9445   -2.5402    6.4276 O.3       1 <0>        -0.1671
     20 S1         -6.8916    0.2555    2.1248 S.3       1 <0>         0.0851
     21 C15        -7.0253    1.9617    1.5356 C.3       1 <0>        -0.1369
     22 C16        -8.1603    2.0652    0.5497 C.2       1 <0>         0.5059
     23 O3         -8.8145    1.0823    0.2727 O.2       1 <0>        -0.4478
     24 N4         -8.4485    3.2502   -0.0242 N.am      1 <0>        -0.5949
     25 C17        -7.6050    4.4272    0.2245 C.3       1 <0>         0.1056
     26 C18        -7.1629    5.0103   -1.1213 C.3       1 <0>        -0.1327
     27 C19        -8.3975    5.2920   -1.9808 C.3       1 <0>        -0.1172
     28 C20        -9.1472    3.9841   -2.2440 C.3       1 <0>        -0.1176
     29 C21        -9.6085    3.3880   -0.9153 C.3       1 <0>         0.1017
     30 H1        -10.3445    4.0488   -0.4574 H         1 <0>         0.0685
     31 C22       -10.2230    2.0335   -1.1577 C.2       1 <0>         0.4814
     32 O4         -9.5515    1.1381   -1.6130 O.co2     1 <0>        -0.6054
     33 H2         -3.6482    2.5428    8.6819 H         1 <0>         0.1016
     34 H3         -3.4031    0.8887    9.2918 H         1 <0>         0.0544
     35 H4         -2.0319    1.8002    8.6156 H         1 <0>         0.0574
     36 H5         -1.7387   -0.2650    8.7428 H         1 <0>         0.1340
     37 H6         -0.6509   -2.3795    8.1177 H         1 <0>         0.1289
     38 H7         -1.0698   -3.3867    5.9136 H         1 <0>         0.1306
     39 H8         -2.5857   -2.2897    4.3196 H         1 <0>         0.1293
     40 H9         -5.8725   -2.2486    3.0891 H         1 <0>         0.1326
     41 H10        -4.4847   -2.6125    4.1426 H         1 <0>         0.1137
     42 H11        -8.2437   -1.8274    4.2794 H         1 <0>         0.1581
     43 H12        -9.1497   -2.3863    6.7618 H         1 <0>         0.1526
     44 H13        -7.0533   -2.9086    8.2445 H         1 <0>         0.2037
     45 H14        -7.2160    2.6239    2.3801 H         1 <0>         0.1186
     46 H15        -6.0940    2.2521    1.0493 H         1 <0>         0.1180
     47 H16        -8.1743    5.1745    0.7772 H         1 <0>         0.0652
     48 H17        -6.7292    4.1335    0.8032 H         1 <0>         0.0801
     49 H18        -6.6167    5.9386   -0.9538 H         1 <0>         0.0697
     50 H19        -6.5180    4.2960   -1.6331 H         1 <0>         0.0662
     51 H20        -9.0534    5.9876   -1.4573 H         1 <0>         0.0607
     52 H21        -8.0871    5.7297   -2.9297 H         1 <0>         0.0603
     53 H22       -10.0133    4.1819   -2.8756 H         1 <0>         0.0691
     54 H23        -8.4843    3.2794   -2.7460 H         1 <0>         0.0696
     55 O5        -11.5164    1.8217   -0.8678 O.co2     1 <0>        -0.7750
@<TRIPOS>BOND
     1    1    2 1
     2    1   33 1
     3    1   34 1
     4    1   35 1
     5    2    3 1
     6    3    8 ar
     7    3    4 ar
     8    4    5 ar
     9    4   36 1
    10    5    6 ar
    11    5   37 1
    12    6    7 ar
    13    6   38 1
    14    7    8 ar
    15    7   39 1
    16    8    9 1
    17    9   13 1
    18    9   10 2
    19   10   11 1
    20   11   12 2
    21   12   13 1
    22   12   20 1
    23   13   14 1
    24   14   15 1
    25   14   40 1
    26   14   41 1
    27   15   19 1
    28   15   16 2
    29   16   17 1
    30   16   42 1
    31   17   18 2
    32   17   43 1
    33   18   19 1
    34   18   44 1
    35   20   21 1
    36   21   22 1
    37   21   45 1
    38   21   46 1
    39   22   23 2
    40   22   24 am
    41   24   29 1
    42   24   25 1
    43   25   26 1
    44   25   47 1
    45   25   48 1
    46   26   27 1
    47   26   49 1
    48   26   50 1
    49   27   28 1
    50   27   51 1
    51   27   52 1
    52   28   29 1
    53   28   53 1
    54   28   54 1
    55   29   30 1
    56   29   31 1
    57   31   32 2
    58   31   55 1
@<TRIPOS>MOLECULE
ZINC32506350
   43    45     0     0     0
SMALL
USER_CHARGES
2-[2-[[(3aR,6aS)-5,5-dioxo-3-[3-(trifluoromethyl)phenyl]-3a,4,6,6a-tetrahydrothieno[3,4-d]thiazol-2-ylidene]amino]-2-oxo-ethoxy]acetic acid
@<TRIPOS>ATOM
      1 C1          1.5224   -0.4988    8.9128 C.ar      1 <0>        -0.1055
      2 C2          0.8567   -1.7100    8.8592 C.ar      1 <0>        -0.0663
      3 C3         -0.3861   -1.7932    8.2591 C.ar      1 <0>        -0.1692
      4 C4         -0.9690   -0.6652    7.7152 C.ar      1 <0>        -0.0629
      5 C5         -0.3009    0.5513    7.7627 C.ar      1 <0>         0.1547
      6 C6          0.9474    0.6316    8.3667 C.ar      1 <0>        -0.0798
      7 N1         -0.8862    1.6944    7.2085 N.pl3     1 <0>        -0.5695
      8 C7         -1.3316    2.8302    7.9591 C.3       1 <0>         0.1006
      9 H1         -0.4992    3.4817    7.6547 H         1 <0>         0.1283
     10 C8         -1.2723    2.9633    9.4720 C.3       1 <0>        -0.5864
     11 S1         -2.2428    4.5230    9.6401 S.o2      1 <0>         2.3828
     12 O1         -1.3458    5.6244    9.6010 O.2       1 <0>        -0.9159
     13 O2         -3.1514    4.3980   10.7255 O.2       1 <0>        -0.9179
     14 C9         -3.1882    4.4570    8.0500 C.3       1 <0>        -0.5558
     15 C10        -2.8424    3.0454    7.5647 C.3       1 <0>        -0.1351
     16 H2         -3.6399    2.4819    8.0711 H         1 <0>         0.1579
     17 S2         -2.5651    2.8680    5.7691 S.3       1 <0>         0.0613
     18 C11        -1.1194    1.8899    5.8417 C.2       1 <0>         0.4528
     19 N2         -0.3969    1.4362    4.8241 N.2       1 <0>        -0.5647
     20 C12        -0.7593    1.7148    3.5743 C.2       1 <0>         0.4855
     21 O3         -1.7518    2.3845    3.3642 O.2       1 <0>        -0.4686
     22 C13         0.0607    1.1999    2.4195 C.3       1 <0>         0.0597
     23 O4         -0.5270    1.6286    1.1895 O.3       1 <0>        -0.3455
     24 C14         0.1771    1.1914    0.0254 C.3       1 <0>         0.0211
     25 C15        -0.5267    1.6978   -1.2072 C.2       1 <0>         0.4670
     26 O5         -1.5286    2.3646   -1.0998 O.co2     1 <0>        -0.6128
     27 O6         -0.0407    1.4080   -2.4243 O.co2     1 <0>        -0.7645
     28 C16        -1.1082   -3.1147    8.2038 C.3       1 <0>         0.5093
     29 F1         -0.3276   -4.0989    8.8197 F         1 <0>        -0.1752
     30 F2         -2.3327   -3.0053    8.8715 F         1 <0>        -0.1755
     31 F3         -1.3348   -3.4669    6.8690 F         1 <0>        -0.1710
     32 H3          2.4930   -0.4371    9.3826 H         1 <0>         0.1440
     33 H4          1.3085   -2.5926    9.2873 H         1 <0>         0.1446
     34 H5         -1.9418   -0.7299    7.2505 H         1 <0>         0.1372
     35 H6          1.4674    1.5772    8.4095 H         1 <0>         0.1374
     36 H7         -1.7360    2.0804    9.9362 H         1 <0>         0.1538
     37 H8         -0.2227    3.0375    9.7927 H         1 <0>         0.1561
     38 H9         -4.2594    4.6016    8.2541 H         1 <0>         0.1590
     39 H10        -2.8323    5.2522    7.3785 H         1 <0>         0.1559
     40 H11         1.0853    1.5934    2.4931 H         1 <0>         0.0812
     41 H12         0.0870    0.1006    2.4498 H         1 <0>         0.0815
     42 H13         1.2041    1.5847    0.0488 H         1 <0>         0.0552
     43 H14         0.2058    0.0920    0.0056 H         1 <0>         0.0552
@<TRIPOS>BOND
     1    1    6 ar
     2    1    2 ar
     3    1   32 1
     4    2    3 ar
     5    2   33 1
     6    3    4 ar
     7    3   28 1
     8    4    5 ar
     9    4   34 1
    10    5    6 ar
    11    5    7 1
    12    6   35 1
    13    7   18 1
    14    7    8 1
    15    8    9 1
    16    8   15 1
    17    8   10 1
    18   10   11 1
    19   10   36 1
    20   10   37 1
    21   11   12 2
    22   11   13 2
    23   11   14 1
    24   14   15 1
    25   14   38 1
    26   14   39 1
    27   15   16 1
    28   15   17 1
    29   17   18 1
    30   18   19 2
    31   19   20 1
    32   20   21 2
    33   20   22 1
    34   22   23 1
    35   22   40 1
    36   22   41 1
    37   23   24 1
    38   24   25 1
    39   24   42 1
    40   24   43 1
    41   25   26 2
    42   25   27 1
    43   28   29 1
    44   28   30 1
    45   28   31 1
@<TRIPOS>MOLECULE
ZINC39691831
   42    45     0     0     0
SMALL
USER_CHARGES

@<TRIPOS>ATOM
      1 C1         -0.0187    1.5258    0.0104 C.3       1 <0>        -0.1454
      2 C2          0.0021   -0.0041    0.0020 C.3       1 <0>         0.0767
      3 H1          0.5216   -0.3652   -0.8856 H         1 <0>         0.1509
      4 C3         -1.4111   -0.5413    0.0294 C.2       1 <0>         0.0184
      5 C4         -1.5177   -1.2767    1.1609 C.2       1 <0>        -0.3308
      6 C5         -0.2249   -1.2405    1.8759 C.2       1 <0>         0.4674
      7 N1         -0.1352   -1.9069    3.0128 N.2       1 <0>        -0.5902
      8 C6         -1.1582   -2.5875    3.5072 C.2       1 <0>         0.4570
      9 N2         -2.3380   -2.6785    2.9481 N.2       1 <0>        -0.6126
     10 C7         -2.6130   -2.0629    1.7832 C.2       1 <0>         0.5449
     11 O1         -3.7108   -2.1468    1.2629 O.2       1 <0>        -0.3946
     12 C8         -0.9476   -3.3123    4.8115 C.3       1 <0>        -0.0635
     13 S1         -2.4774   -4.1655    5.2831 S.3       1 <0>         0.1273
     14 C9         -2.0737   -4.9538    6.8063 C.2       1 <0>         0.3598
     15 N3         -0.8648   -4.8125    7.3109 N.2       1 <0>        -0.5111
     16 C10        -0.5322   -5.3946    8.4566 C.2       1 <0>         0.1350
     17 C11        -1.4419   -6.1844    9.1849 C.2       1 <0>        -0.2753
     18 C12        -0.9156   -6.7466   10.4168 C.2       1 <0>        -0.0782
     19 C13         0.3530   -6.4866   10.7660 C.2       1 <0>        -0.1993
     20 S2          0.9428   -5.4493    9.4416 S.3       1 <0>         0.1268
     21 C14        -2.7457   -6.3202    8.6121 C.2       1 <0>         0.5632
     22 O2         -3.5999   -6.9855    9.1722 O.2       1 <0>        -0.5238
     23 N4         -3.0191   -5.6982    7.4505 N.am      1 <0>        -0.5053
     24 C15        -4.3547   -5.8283    6.8627 C.3       1 <0>         0.1140
     25 C16        -4.3875   -7.0276    5.9509 C.2       1 <0>        -0.1848
     26 C17        -5.2878   -7.9622    6.1301 C.2       1 <0>        -0.1490
     27 O3          0.6494   -0.4918    1.1811 O.3       1 <0>        -0.2507
     28 C18        -2.4703   -0.3086   -0.9827 C.2       1 <0>         0.5211
     29 O4         -3.5761   -0.8065   -0.8352 O.co2     1 <0>        -0.6039
     30 O5         -2.2369    0.3810   -1.9637 O.co2     1 <0>        -0.6585
     31 H2          1.0039    1.9031    0.0027 H         1 <0>         0.0789
     32 H3         -0.5459    1.8868   -0.8726 H         1 <0>         0.1097
     33 H4         -0.5289    1.8773    0.9072 H         1 <0>         0.0647
     34 H5         -0.1455   -4.0414    4.6967 H         1 <0>         0.1368
     35 H6         -0.6781   -2.5948    5.5865 H         1 <0>         0.1367
     36 H7         -1.5388   -7.3664   11.0444 H         1 <0>         0.1410
     37 H8          0.8889   -6.8246   11.6406 H         1 <0>         0.1948
     38 H9         -5.0904   -5.9554    7.6569 H         1 <0>         0.1115
     39 H10        -4.5889   -4.9304    6.2907 H         1 <0>         0.1118
     40 H11        -3.6689   -7.1167    5.1496 H         1 <0>         0.1210
     41 H12        -5.3114   -8.8218    5.4766 H         1 <0>         0.1058
     42 H13        -6.0065   -7.8732    6.9313 H         1 <0>         0.1019
@<TRIPOS>BOND
     1    1    2 1
     2    1   31 1
     3    1   32 1
     4    1   33 1
     5    2    3 1
     6    2   27 1
     7    2    4 1
     8    4    5 2
     9    4   28 1
    10    5   10 1
    11    5    6 1
    12    6    7 2
    13    6   27 1
    14    7    8 1
    15    8    9 2
    16    8   12 1
    17    9   10 1
    18   10   11 2
    19   12   13 1
    20   12   34 1
    21   12   35 1
    22   13   14 1
    23   14   23 1
    24   14   15 2
    25   15   16 1
    26   16   20 1
    27   16   17 2
    28   17   18 1
    29   17   21 1
    30   18   19 2
    31   18   36 1
    32   19   20 1
    33   19   37 1
    34   21   22 2
    35   21   23 am
    36   23   24 1
    37   24   25 1
    38   24   38 1
    39   24   39 1
    40   25   26 2
    41   25   40 1
    42   26   41 1
    43   26   42 1
    44   28   29 2
    45   28   30 1
@<TRIPOS>MOLECULE
ZINC20324354
   40    41     0     0     0
SMALL
USER_CHARGES
(2R)-2-[4-[[(1R)-1-(1,5-dimethylpyrazol-4-yl)ethyl]carbamoyl]pyrazol-1-yl]propanoic acid
@<TRIPOS>ATOM
      1 C1          1.5410    4.4253    0.0119 C.3       1 <0>        -0.0984
      2 C2          0.6741    3.1925    0.0128 C.2       1 <0>         0.0932
      3 C3          1.1092    1.9113    0.0017 C.2       1 <0>        -0.2382
      4 C4         -0.0126    1.0758    0.0080 C.2       1 <0>         0.0579
      5 N1         -1.0827    1.8285    0.0165 N.2       1 <0>        -0.2960
      6 N2         -0.6751    3.1687    0.0255 N.pl3     1 <0>        -0.3745
      7 C5         -1.5577    4.3379    0.0402 C.3       1 <0>         0.0983
      8 C6          2.5480    1.4636   -0.0149 C.3       1 <0>         0.2286
      9 H1          3.1425    2.1439   -0.6424 H         1 <0>         0.0898
     10 C7          3.0866    1.4246    1.4167 C.3       1 <0>        -0.1550
     11 N3          2.6366    0.1263   -0.6065 N.am      1 <0>        -0.7377
     12 C8          3.7835   -0.2793   -1.1866 C.2       1 <0>         0.6069
     13 O1          4.7449    0.4647   -1.2189 O.2       1 <0>        -0.5570
     14 C9          3.8727   -1.6250   -1.7820 C.2       1 <0>        -0.3354
     15 C10         2.8477   -2.5970   -1.8154 C.2       1 <0>         0.0697
     16 N4          3.3109   -3.6511   -2.4286 N.2       1 <0>        -0.3149
     17 N5          4.6377   -3.4111   -2.8030 N.pl3     1 <0>        -0.3325
     18 C11         4.9750   -2.1737   -2.4061 C.2       1 <0>         0.1872
     19 C12         5.5114   -4.3515   -3.5091 C.3       1 <0>         0.1030
     20 H2          4.8682   -5.0336   -4.0844 H         1 <0>         0.1065
     21 C13         6.3589   -5.1208   -2.4939 C.3       1 <0>        -0.1403
     22 C14         6.4156   -3.5914   -4.4450 C.2       1 <0>         0.4615
     23 O2          6.3381   -2.3876   -4.5150 O.co2     1 <0>        -0.6158
     24 O3          7.3069   -4.2516   -5.2008 O.co2     1 <0>        -0.7397
     25 H3          2.6002    4.1287    0.0001 H         1 <0>         0.0913
     26 H4          1.3363    5.0181    0.9156 H         1 <0>         0.0761
     27 H5          1.3192    5.0288   -0.8806 H         1 <0>         0.0765
     28 H6          0.0021   -0.0041    0.0020 H         1 <0>         0.1814
     29 H7         -2.6063    4.0056    0.0484 H         1 <0>         0.0944
     30 H8         -1.3733    4.9478   -0.8565 H         1 <0>         0.0783
     31 H9         -1.3562    4.9381    0.9397 H         1 <0>         0.0782
     32 H10         4.1369    1.0978    1.4045 H         1 <0>         0.0641
     33 H11         2.4900    0.7193    2.0138 H         1 <0>         0.0563
     34 H12         3.0201    2.4287    1.8609 H         1 <0>         0.0587
     35 H13         1.7671   -0.5468   -0.5772 H         1 <0>         0.4099
     36 H14         1.8541   -2.4858   -1.4070 H         1 <0>         0.1787
     37 H15         5.9327   -1.6953   -2.5490 H         1 <0>         0.1900
     38 H16         7.0149   -5.8269   -3.0241 H         1 <0>         0.0867
     39 H17         5.6989   -5.6756   -1.8108 H         1 <0>         0.0549
     40 H18         6.9722   -4.4130   -1.9169 H         1 <0>         0.0572
@<TRIPOS>BOND
     1    1    2 1
     2    1   25 1
     3    1   26 1
     4    1   27 1
     5    2    6 1
     6    2    3 2
     7    3    4 1
     8    3    8 1
     9    4    5 2
    10    4   28 1
    11    5    6 1
    12    6    7 1
    13    7   29 1
    14    7   30 1
    15    7   31 1
    16    8    9 1
    17    8   10 1
    18    8   11 1
    19   10   32 1
    20   10   33 1
    21   10   34 1
    22   11   12 am
    23   11   35 1
    24   12   13 2
    25   12   14 1
    26   14   18 2
    27   14   15 1
    28   15   16 2
    29   15   36 1
    30   16   17 1
    31   17   18 1
    32   17   19 1
    33   18   37 1
    34   19   20 1
    35   19   21 1
    36   19   22 1
    37   21   38 1
    38   21   39 1
    39   21   40 1
    40   22   23 2
    41   22   24 1
@<TRIPOS>MOLECULE
ZINC36885407
   39    40     0     0     0
SMALL
USER_CHARGES

@<TRIPOS>ATOM
      1 C1         -0.0187    1.5258    0.0104 C.3       1 <0>        -0.1807
      2 C2          1.3165    0.7789   -0.0063 C.3       1 <0>        -0.1709
      3 C3          0.0021   -0.0041    0.0020 C.3       1 <0>        -0.1645
      4 C4         -0.4085   -0.7090   -1.2923 C.3       1 <0>         0.1727
      5 N1         -0.4408   -2.1568   -1.0708 N.am      1 <0>        -0.5917
      6 C5         -1.6757   -2.8011   -0.6168 C.3       1 <0>         0.0374
      7 C6         -2.4925   -3.2199   -1.8120 C.2       1 <0>         0.4753
      8 O1         -2.0812   -3.0006   -2.9386 O.co2     1 <0>        -0.6778
      9 O2         -3.5647   -3.7780   -1.6523 O.co2     1 <0>        -0.6993
     10 C7          0.6657   -2.8961   -1.2847 C.2       1 <0>         0.7194
     11 O3          1.6906   -2.3614   -1.6614 O.2       1 <0>        -0.6064
     12 N2          0.6360   -4.2280   -1.0808 N.am      1 <0>        -0.7399
     13 C8          1.8387   -5.0316   -1.3133 C.3       1 <0>         0.1487
     14 C9          2.7257   -4.9791   -0.0729 C.3       1 <0>        -0.1242
     15 C10         4.0979   -5.5813   -0.3857 C.3       1 <0>        -0.5936
     16 S1          3.8870   -7.3354   -0.8113 S.o2      1 <0>         2.4115
     17 O4          5.1039   -7.8152   -1.3664 O.2       1 <0>        -0.9477
     18 O5          3.3230   -8.0070    0.3068 O.2       1 <0>        -0.9375
     19 C11         2.6406   -7.2574   -2.1315 C.3       1 <0>        -0.5942
     20 C12         1.4306   -6.4686   -1.6243 C.3       1 <0>        -0.1247
     21 H1         -0.3072    2.0201    0.9381 H         1 <0>         0.0900
     22 H2         -0.3248    2.0300   -0.9061 H         1 <0>         0.0936
     23 H3          1.8888    0.7918   -0.9339 H         1 <0>         0.0957
     24 H4          1.9064    0.7818    0.9103 H         1 <0>         0.0859
     25 H5         -0.2728   -0.5162    0.9241 H         1 <0>         0.1004
     26 H6         -1.3977   -0.3657   -1.5950 H         1 <0>         0.0775
     27 H7          0.3122   -0.4774   -2.0766 H         1 <0>         0.0806
     28 H8         -1.4292   -3.6789   -0.0195 H         1 <0>         0.0683
     29 H9         -2.2503   -2.0996   -0.0118 H         1 <0>         0.0779
     30 H10        -0.1817   -4.6546   -0.7802 H         1 <0>         0.4011
     31 H11         2.3855   -4.6219   -2.1626 H         1 <0>         0.0967
     32 H12         2.8484   -3.9423    0.2405 H         1 <0>         0.0957
     33 H13         2.2567   -5.5457    0.7316 H         1 <0>         0.0844
     34 H14         4.5453   -5.0526   -1.2274 H         1 <0>         0.1362
     35 H15         4.7433   -5.4926    0.4881 H         1 <0>         0.1356
     36 H16         3.0629   -6.7576   -3.0033 H         1 <0>         0.1370
     37 H17         2.3311   -8.2670   -2.4016 H         1 <0>         0.1394
     38 H18         1.0452   -6.9391   -0.7198 H         1 <0>         0.0907
     39 H19         0.6536   -6.4667   -2.3887 H         1 <0>         0.1015
@<TRIPOS>BOND
     1    1    3 1
     2    1    2 1
     3    1   21 1
     4    1   22 1
     5    2    3 1
     6    2   23 1
     7    2   24 1
     8    3    4 1
     9    3   25 1
    10    4    5 1
    11    4   26 1
    12    4   27 1
    13    5    6 1
    14    5   10 am
    15    6    7 1
    16    6   28 1
    17    6   29 1
    18    7    8 2
    19    7    9 1
    20   10   11 2
    21   10   12 am
    22   12   13 1
    23   12   30 1
    24   13   20 1
    25   13   14 1
    26   13   31 1
    27   14   15 1
    28   14   32 1
    29   14   33 1
    30   15   16 1
    31   15   34 1
    32   15   35 1
    33   16   17 2
    34   16   18 2
    35   16   19 1
    36   19   20 1
    37   19   36 1
    38   19   37 1
    39   20   38 1
    40   20   39 1
@<TRIPOS>MOLECULE
ZINC40581901
   44    44     0     0     0
SMALL
USER_CHARGES

@<TRIPOS>ATOM
      1 C1         -0.0154    1.5274    0.0106 C.3       1 <0>        -0.1569
      2 C2          0.0060   -0.0024    0.0028 C.3       1 <0>        -0.1142
      3 C3          0.7213   -0.4961   -1.2564 C.3       1 <0>        -0.1039
      4 H1          1.7132   -0.0476   -1.3108 H         1 <0>         0.0724
      5 C4          0.8519   -2.0201   -1.2054 C.3       1 <0>        -0.1122
      6 C5          1.5963   -2.5119   -2.4488 C.3       1 <0>        -0.1344
      7 C6          0.7959   -2.1368   -3.7000 C.3       1 <0>         0.1120
      8 N1          0.5409   -0.6899   -3.6822 N.am      1 <0>        -0.6353
      9 C7         -0.0887   -0.0975   -2.4941 C.3       1 <0>         0.1363
     10 C8          0.8786    0.0798   -4.7357 C.2       1 <0>         0.7140
     11 O1          0.5803    1.2585   -4.7478 O.2       1 <0>        -0.5881
     12 N2          1.5468   -0.4569   -5.7758 N.am      1 <0>        -0.7138
     13 C9          2.0112    0.4006   -6.8691 C.3       1 <0>         0.1014
     14 H2          2.3081    1.3702   -6.4694 H         1 <0>         0.0856
     15 C10         3.2092   -0.2556   -7.5583 C.3       1 <0>        -0.0997
     16 C11         4.3818   -0.3328   -6.5785 C.3       1 <0>        -0.6002
     17 S1          5.8023   -1.1107   -7.3956 S.o2      1 <0>         2.4151
     18 O2          5.4663   -2.4588   -7.6941 O.2       1 <0>        -0.9422
     19 O3          6.2390   -0.2586   -8.4455 O.2       1 <0>        -0.9382
     20 C12         7.0645   -1.1090   -6.0927 C.3       1 <0>        -0.6596
     21 C13         0.8981    0.5883   -7.8676 C.2       1 <0>         0.4895
     22 O4         -0.1827    0.0553   -7.6831 O.co2     1 <0>        -0.6797
     23 O5          1.0786    1.2733   -8.8600 O.co2     1 <0>        -0.6966
     24 H3          1.0070    1.9051    0.0018 H         1 <0>         0.0531
     25 H4         -0.5434    1.8879   -0.8722 H         1 <0>         0.0606
     26 H5         -0.5250    1.8791    0.9076 H         1 <0>         0.0517
     27 H6          0.5340   -0.3629    0.8855 H         1 <0>         0.0614
     28 H7         -1.0165   -0.3801    0.0115 H         1 <0>         0.0627
     29 H8          1.4071   -2.3073   -0.3125 H         1 <0>         0.0614
     30 H9         -0.1410   -2.4688   -1.1754 H         1 <0>         0.0636
     31 H10         2.5800   -2.0443   -2.4926 H         1 <0>         0.0647
     32 H11         1.7096   -3.5949   -2.4005 H         1 <0>         0.0726
     33 H12         1.3677   -2.3961   -4.5910 H         1 <0>         0.0768
     34 H13        -0.1521   -2.6749   -3.7022 H         1 <0>         0.0661
     35 H14        -1.1090   -0.4689   -2.3983 H         1 <0>         0.0583
     36 H15        -0.1003    0.9883   -2.5891 H         1 <0>         0.0933
     37 H16         1.7204   -1.4109   -5.8004 H         1 <0>         0.3851
     38 H17         2.9376   -1.2610   -7.8798 H         1 <0>         0.0784
     39 H18         3.4990    0.3374   -8.4257 H         1 <0>         0.1025
     40 H19         4.6535    0.6727   -6.2570 H         1 <0>         0.1326
     41 H20         4.0921   -0.9258   -5.7110 H         1 <0>         0.1259
     42 H21         6.7050   -1.6818   -5.2378 H         1 <0>         0.1253
     43 H22         7.9804   -1.5608   -6.4735 H         1 <0>         0.1262
     44 H23         7.2664   -0.0834   -5.7838 H         1 <0>         0.1266
@<TRIPOS>BOND
     1    1    2 1
     2    1   24 1
     3    1   25 1
     4    1   26 1
     5    2    3 1
     6    2   27 1
     7    2   28 1
     8    3    4 1
     9    3    9 1
    10    3    5 1
    11    5    6 1
    12    5   29 1
    13    5   30 1
    14    6    7 1
    15    6   31 1
    16    6   32 1
    17    7    8 1
    18    7   33 1
    19    7   34 1
    20    8    9 1
    21    8   10 am
    22    9   35 1
    23    9   36 1
    24   10   11 2
    25   10   12 am
    26   12   13 1
    27   12   37 1
    28   13   14 1
    29   13   15 1
    30   13   21 1
    31   15   16 1
    32   15   38 1
    33   15   39 1
    34   16   17 1
    35   16   40 1
    36   16   41 1
    37   17   18 2
    38   17   19 2
    39   17   20 1
    40   20   42 1
    41   20   43 1
    42   20   44 1
    43   21   22 2
    44   21   23 1
@<TRIPOS>MOLECULE
ZINC42727538
   41    41     0     0     0
SMALL
USER_CHARGES

@<TRIPOS>ATOM
      1 C1          0.9638   -1.1914   -0.0219 C.3       1 <0>        -0.1593
      2 C2          0.0014   -0.0022    0.0028 C.3       1 <0>         0.1355
      3 C3          0.3381    0.9504   -1.1461 C.3       1 <0>        -0.1627
      4 N1         -1.3738   -0.4838   -0.1493 N.am      1 <0>        -0.6166
      5 C4         -1.7324   -1.3273   -1.2922 C.3       1 <0>         0.1505
      6 C5         -1.5327   -2.7763   -0.9293 C.2       1 <0>         0.4292
      7 O1         -1.1319   -3.0739    0.1710 O.2       1 <0>        -0.4695
      8 O2         -1.7999   -3.7363   -1.8286 O.3       1 <0>        -0.3644
      9 C6         -1.5879   -5.0882   -1.4168 C.3       1 <0>         0.0363
     10 C7         -2.3091   -0.1509    0.7622 C.2       1 <0>         0.7286
     11 O3         -3.4691   -0.4708    0.5877 O.2       1 <0>        -0.5679
     12 N2         -1.9586    0.5366    1.8672 N.am      1 <0>        -0.7129
     13 C8         -2.9520    0.8019    2.9107 C.3       1 <0>         0.1448
     14 C9         -4.1068    1.6140    2.3210 C.3       1 <0>        -0.1378
     15 C10        -2.2999    1.5931    4.0464 C.3       1 <0>        -0.1483
     16 C11        -2.2216    0.9235    5.4198 C.3       1 <0>        -0.1779
     17 C12        -3.2042    2.0722    5.1837 C.3       1 <0>        -0.1599
     18 C13        -3.4787   -0.5044    3.4466 C.2       1 <0>         0.5049
     19 O4         -3.0629   -1.5592    2.9983 O.co2     1 <0>        -0.6678
     20 O5         -4.3207   -0.5064    4.3284 O.co2     1 <0>        -0.6989
     21 H1          1.9911   -0.8279    0.0041 H         1 <0>         0.0603
     22 H2          0.7806   -1.8252    0.8457 H         1 <0>         0.0734
     23 H3          0.8054   -1.7681   -0.9331 H         1 <0>         0.0492
     24 H4          0.0990    0.5245    0.9521 H         1 <0>         0.0864
     25 H5          0.1570    0.4504   -2.0976 H         1 <0>         0.0587
     26 H6         -0.2896    1.8389   -1.0772 H         1 <0>         0.0601
     27 H7          1.3868    1.2406   -1.0819 H         1 <0>         0.0657
     28 H8         -2.7769   -1.1591   -1.5544 H         1 <0>         0.1236
     29 H9         -1.0991   -1.0751   -2.1427 H         1 <0>         0.1108
     30 H10        -2.2192   -5.3091   -0.5561 H         1 <0>         0.0600
     31 H11        -1.8414   -5.7614   -2.2357 H         1 <0>         0.0956
     32 H12        -0.5414   -5.2251   -1.1445 H         1 <0>         0.0547
     33 H13        -1.0485    0.8558    1.9715 H         1 <0>         0.3793
     34 H14        -4.5714    1.0503    1.5119 H         1 <0>         0.0719
     35 H15        -4.8459    1.8114    3.0974 H         1 <0>         0.0610
     36 H16        -3.7258    2.5588    1.9334 H         1 <0>         0.0334
     37 H17        -1.4732    2.2406    3.7539 H         1 <0>         0.0897
     38 H18        -2.6346   -0.0808    5.5143 H         1 <0>         0.1188
     39 H19        -1.3432    1.1302    6.0312 H         1 <0>         0.0753
     40 H20        -2.9723    3.0346    5.6398 H         1 <0>         0.0791
     41 H21        -4.2638    1.8237    5.1229 H         1 <0>         0.1070
@<TRIPOS>BOND
     1    1    2 1
     2    1   21 1
     3    1   22 1
     4    1   23 1
     5    2    3 1
     6    2    4 1
     7    2   24 1
     8    3   25 1
     9    3   26 1
    10    3   27 1
    11    4    5 1
    12    4   10 am
    13    5    6 1
    14    5   28 1
    15    5   29 1
    16    6    7 2
    17    6    8 1
    18    8    9 1
    19    9   30 1
    20    9   31 1
    21    9   32 1
    22   10   11 2
    23   10   12 am
    24   12   13 1
    25   12   33 1
    26   13   14 1
    27   13   15 1
    28   13   18 1
    29   14   34 1
    30   14   35 1
    31   14   36 1
    32   15   17 1
    33   15   16 1
    34   15   37 1
    35   16   17 1
    36   16   38 1
    37   16   39 1
    38   17   40 1
    39   17   41 1
    40   18   19 2
    41   18   20 1
@<TRIPOS>MOLECULE
ZINC49100105
   34    35     0     0     0
SMALL
USER_CHARGES

@<TRIPOS>ATOM
      1 C1         -0.0187    1.5258    0.0104 C.3       1 <0>        -0.1705
      2 C2          0.0021   -0.0041    0.0020 C.3       1 <0>         0.1221
      3 H1         -1.0205   -0.3814    0.0098 H         1 <0>         0.1260
      4 C3          0.7074   -0.4901   -1.2379 C.2       1 <0>         0.4963
      5 O1          1.7039   -1.1744   -1.1398 O.2       1 <0>        -0.4895
      6 N1          0.2309   -0.1642   -2.4557 N.am      1 <0>        -0.7309
      7 C4          0.9167   -0.6367   -3.6611 C.3       1 <0>         0.0886
      8 N2          0.7106   -0.4894    1.1889 N.pl3     1 <0>        -0.4525
      9 C5          0.2133   -1.2953    2.1755 C.2       1 <0>         0.1930
     10 N3          1.1698   -1.4862    3.0394 N.2       1 <0>        -0.2818
     11 N4          2.2299   -0.8608    2.6693 N.2       1 <0>        -0.3103
     12 C6          2.0064   -0.2358    1.5366 C.2       1 <0>         0.1858
     13 S1          3.1594    0.7471    0.6371 S.3       1 <0>         0.0527
     14 C7          4.6724    0.6723    1.6351 C.3       1 <0>        -0.1672
     15 C8          5.7541    1.4830    0.9690 C.2       1 <0>         0.5165
     16 O2          5.5256    2.0580   -0.0816 O.co2     1 <0>        -0.6767
     17 O3          6.8578    1.5640    1.4807 O.co2     1 <0>        -0.6775
     18 C9         -1.1827   -1.8580    2.2500 C.3       1 <0>        -0.0824
     19 C10        -1.5892   -2.5706    3.5415 C.3       1 <0>        -0.1480
     20 C11        -1.3305   -3.3807    2.2696 C.3       1 <0>        -0.1601
     21 H2          1.0039    1.9031    0.0027 H         1 <0>         0.0902
     22 H3         -0.5459    1.8868   -0.8726 H         1 <0>         0.0850
     23 H4         -0.5289    1.8773    0.9072 H         1 <0>         0.0782
     24 H5         -0.5660    0.3831   -2.5342 H         1 <0>         0.4001
     25 H6          0.3895   -0.2756   -4.5441 H         1 <0>         0.0759
     26 H7          1.9393   -0.2594   -3.6688 H         1 <0>         0.0670
     27 H8          0.9314   -1.7265   -3.6671 H         1 <0>         0.0588
     28 H9          4.4735    1.0774    2.6273 H         1 <0>         0.0888
     29 H10         4.9979   -0.3641    1.7243 H         1 <0>         0.0898
     30 H11        -1.9492   -1.2846    1.7286 H         1 <0>         0.1190
     31 H12        -0.8468   -2.6324    4.3372 H         1 <0>         0.1099
     32 H13        -2.6232   -2.4660    3.8700 H         1 <0>         0.1021
     33 H14        -2.1944   -3.8091    1.7613 H         1 <0>         0.1017
     34 H15        -0.4180   -3.9755    2.2286 H         1 <0>         0.0998
@<TRIPOS>BOND
     1    1    2 1
     2    1   21 1
     3    1   22 1
     4    1   23 1
     5    2    3 1
     6    2    4 1
     7    2    8 1
     8    4    5 2
     9    4    6 am
    10    6    7 1
    11    6   24 1
    12    7   25 1
    13    7   26 1
    14    7   27 1
    15    8   12 1
    16    8    9 1
    17    9   10 2
    18    9   18 1
    19   10   11 1
    20   11   12 2
    21   12   13 1
    22   13   14 1
    23   14   15 1
    24   14   28 1
    25   14   29 1
    26   15   16 2
    27   15   17 1
    28   18   20 1
    29   18   19 1
    30   18   30 1
    31   19   20 1
    32   19   31 1
    33   19   32 1
    34   20   33 1
    35   20   34 1
@<TRIPOS>MOLECULE
ZINC17124245
   44    45     0     0     0
SMALL
USER_CHARGES
N-hexyl-4-hydroxy-2-oxo-5,6,7,8-tetrahydro-1H-quinoline-3-carboxamide
@<TRIPOS>ATOM
      1 C1          8.6470    2.0972    0.1270 C.3       1 <0>        -0.1537
      2 C2          7.4280    1.1788    0.2340 C.3       1 <0>        -0.1266
      3 C3          6.1504    2.0083    0.0909 C.3       1 <0>        -0.1196
      4 C4          4.9314    1.0899    0.1980 C.3       1 <0>        -0.1173
      5 C5          3.6537    1.9194    0.0549 C.3       1 <0>        -0.1282
      6 C6          2.4347    1.0010    0.1619 C.3       1 <0>         0.1254
      7 N1          1.2114    1.7952    0.0249 N.am      1 <0>        -0.7393
      8 C7          0.0069    1.1937    0.0871 C.2       1 <0>         0.6446
      9 O1         -0.0645   -0.0185    0.1656 O.2       1 <0>        -0.5772
     10 C8         -1.2185    2.0002    0.0540 C.2       1 <0>        -0.4861
     11 C9         -1.7082    2.5117   -1.1533 C.2       1 <0>         0.3506
     12 C10        -2.8934    3.2781   -1.1534 C.2       1 <0>        -0.2176
     13 C11        -3.5382    3.5145    0.0062 C.2       1 <0>         0.1559
     14 N2         -3.0518    3.0219    1.1844 N.am      1 <0>        -0.6497
     15 H1         -3.5822    3.2254    2.1263 H         1 <0>         0.4116
     16 C12        -1.9319    2.2854    1.2435 C.2       1 <0>         0.5538
     17 O2         -1.5312    1.8638    2.3149 O.2       1 <0>        -0.6081
     18 C13        -4.8155    4.3139    0.0777 C.3       1 <0>        -0.0836
     19 C14        -5.0024    5.1498   -1.1860 C.3       1 <0>        -0.1139
     20 C15        -4.8370    4.2272   -2.4001 C.3       1 <0>        -0.1229
     21 C16        -3.3717    3.8054   -2.4812 C.3       1 <0>        -0.0408
     22 O3         -1.0541    2.2689   -2.3108 O.3       1 <0>        -0.6772
     23 H2          9.5655    1.5008    0.2299 H         1 <0>         0.0510
     24 H3          8.6085    2.8521    0.9261 H         1 <0>         0.0528
     25 H4          8.6433    2.5989   -0.8519 H         1 <0>         0.0531
     26 H5          7.4665    0.4239   -0.5651 H         1 <0>         0.0608
     27 H6          7.4317    0.6771    1.2129 H         1 <0>         0.0605
     28 H7          6.1120    2.7633    0.8900 H         1 <0>         0.0608
     29 H8          6.1467    2.5100   -0.8880 H         1 <0>         0.0614
     30 H9          4.9698    0.3349   -0.6011 H         1 <0>         0.0635
     31 H10         4.9351    0.5882    1.1769 H         1 <0>         0.0629
     32 H11         3.6153    2.6743    0.8540 H         1 <0>         0.0653
     33 H12         3.6500    2.4211   -0.9240 H         1 <0>         0.0672
     34 H13         2.4732    0.2461   -0.6372 H         1 <0>         0.0541
     35 H14         2.4384    0.4992    1.1408 H         1 <0>         0.0528
     36 H15         1.2759    2.8825   -0.1287 H         1 <0>         0.4107
     37 H16        -5.6708    3.6299    0.1804 H         1 <0>         0.0799
     38 H17        -4.7783    4.9876    0.9465 H         1 <0>         0.0749
     39 H18        -6.0077    5.5964   -1.1849 H         1 <0>         0.0647
     40 H19        -4.2465    5.9485   -1.2125 H         1 <0>         0.0668
     41 H20        -5.4793    3.3425   -2.2785 H         1 <0>         0.0615
     42 H21        -5.1263    4.7676   -3.3134 H         1 <0>         0.0617
     43 H22        -2.7666    4.6779   -2.7687 H         1 <0>         0.0604
     44 H23        -3.2700    3.0208   -3.2455 H         1 <0>         0.0730
@<TRIPOS>BOND
     1    1    2 1
     2    1   23 1
     3    1   24 1
     4    1   25 1
     5    2    3 1
     6    2   26 1
     7    2   27 1
     8    3    4 1
     9    3   28 1
    10    3   29 1
    11    4    5 1
    12    4   30 1
    13    4   31 1
    14    5    6 1
    15    5   32 1
    16    5   33 1
    17    6    7 1
    18    6   34 1
    19    6   35 1
    20    7    8 am
    21    7   36 1
    22    8    9 2
    23    8   10 1
    24   10   16 1
    25   10   11 2
    26   11   12 1
    27   11   22 1
    28   12   21 1
    29   12   13 2
    30   13   14 1
    31   13   18 1
    32   14   15 1
    33   14   16 am
    34   16   17 2
    35   18   19 1
    36   18   37 1
    37   18   38 1
    38   19   20 1
    39   19   39 1
    40   19   40 1
    41   20   21 1
    42   20   41 1
    43   20   42 1
    44   21   43 1
    45   21   44 1
@<TRIPOS>MOLECULE
ZINC37055860
   29    30     0     0     0
SMALL
USER_CHARGES

@<TRIPOS>ATOM
      1 C1         -0.0166    1.3737    0.0096 C.ar      1 <0>        -0.2258
      2 C2          1.1696    2.0900    0.0021 C.ar      1 <0>        -0.0379
      3 C3          2.3829    1.4324   -0.0134 C.ar      1 <0>        -0.2615
      4 C4          2.4221    0.0442   -0.0212 C.ar      1 <0>         0.3243
      5 C5          1.2224   -0.6845   -0.0132 C.ar      1 <0>        -0.1222
      6 C6          0.0021   -0.0041    0.0020 C.ar      1 <0>        -0.0255
      7 C7          1.2490   -2.1162   -0.0211 C.1       1 <0>         0.3083
      8 N1          1.2701   -3.2520   -0.0273 N.1       1 <0>        -0.4863
      9 N2          3.6432   -0.6203   -0.0373 N.2       1 <0>        -1.0818
     10 S1          5.0559    0.2436   -0.0472 S.o2      1 <0>         2.6130
     11 O1          5.1023    0.9320   -1.2895 O.2       1 <0>        -1.0225
     12 O2          5.1279    0.9187    1.2010 O.2       1 <0>        -1.0271
     13 C8          6.3784   -0.9206   -0.0670 C.ar      1 <0>        -0.6896
     14 C9          7.2235   -0.9883   -1.1576 C.ar      1 <0>         0.0252
     15 C10         8.2617   -1.9010   -1.1742 C.ar      1 <0>        -0.1820
     16 C11         8.4578   -2.7500   -0.0990 C.ar      1 <0>        -0.0005
     17 C12         7.6157   -2.6876    0.9947 C.ar      1 <0>        -0.1966
     18 C13         6.5755   -1.7672    1.0164 C.ar      1 <0>         0.3240
     19 N3          5.7258   -1.6973    2.1227 N.pl3     1 <0>        -0.8531
     20 Br1         9.8791   -3.9970   -0.1269 Br        1 <0>        -0.0569
     21 H1         -0.9606    1.8981    0.0259 H         1 <0>         0.1131
     22 H2          1.1445    3.1697    0.0081 H         1 <0>         0.1107
     23 H3          3.3030    1.9981   -0.0199 H         1 <0>         0.1063
     24 H4         -0.9254   -0.5574    0.0082 H         1 <0>         0.1152
     25 H5          7.0727   -0.3276   -1.9985 H         1 <0>         0.1463
     26 H6          8.9210   -1.9518   -2.0281 H         1 <0>         0.1331
     27 H7          7.7687   -3.3505    1.8335 H         1 <0>         0.1337
     28 H8          4.9971   -1.0572    2.1350 H         1 <0>         0.4151
     29 H9          5.8643   -2.2890    2.8788 H         1 <0>         0.4011
@<TRIPOS>BOND
     1    1    6 ar
     2    1    2 ar
     3    1   21 1
     4    2    3 ar
     5    2   22 1
     6    3    4 ar
     7    3   23 1
     8    4    5 ar
     9    4    9 1
    10    5    6 ar
    11    5    7 1
    12    6   24 1
    13    7    8 3
    14    9   10 1
    15   10   11 2
    16   10   12 2
    17   10   13 1
    18   13   18 ar
    19   13   14 ar
    20   14   15 ar
    21   14   25 1
    22   15   16 ar
    23   15   26 1
    24   16   17 ar
    25   16   20 1
    26   17   18 ar
    27   17   27 1
    28   18   19 1
    29   19   28 1
    30   19   29 1
@<TRIPOS>MOLECULE
ZINC40323119
   33    35     0     0     0
SMALL
USER_CHARGES

@<TRIPOS>ATOM
      1 C1         -0.0168    1.3849    0.0097 C.ar      1 <0>        -0.2208
      2 C2          1.1707    2.0901    0.0021 C.ar      1 <0>         0.0258
      3 C3          2.3774    1.4150   -0.0135 C.ar      1 <0>        -0.6740
      4 C4          2.3998    0.0323   -0.0211 C.ar      1 <0>         0.0258
      5 C5          1.2161   -0.6790   -0.0137 C.ar      1 <0>        -0.2207
      6 C6          0.0021   -0.0041    0.0020 C.ar      1 <0>         0.2509
      7 N1         -1.1970   -0.7204    0.0101 N.pl3     1 <0>        -0.8747
      8 S1          3.8900    2.3186   -0.0243 S.o2      1 <0>         2.6110
      9 O1          4.8717    1.4606   -0.5894 O.2       1 <0>        -1.0114
     10 O2          3.5945    3.5988   -0.5657 O.2       1 <0>        -1.0115
     11 N2          4.3264    2.5618    1.5546 N.2       1 <0>        -1.0180
     12 C7          5.4879    3.2524    1.8530 C.2       1 <0>         0.2584
     13 C8          6.0080    3.5426    3.1011 C.2       1 <0>        -0.2406
     14 C9          7.2625    4.2932    3.1460 C.2       1 <0>        -0.0460
     15 C10         7.7552    4.6105    1.9355 C.2       1 <0>        -0.2648
     16 S2          6.5924    3.9233    0.7841 S.3       1 <0>         0.0448
     17 C11         9.0416    5.3843    2.0388 C.3       1 <0>        -0.0177
     18 C12         9.0782    5.8875    3.4989 C.3       1 <0>        -0.1147
     19 C13         8.2070    4.8363    4.2161 C.3       1 <0>        -0.0593
     20 C14         5.3453    3.1259    4.3002 C.1       1 <0>         0.3281
     21 N3          4.8196    2.7953    5.2514 N.1       1 <0>        -0.5141
     22 H1         -0.9589    1.9127    0.0260 H         1 <0>         0.1250
     23 H2          1.1567    3.1700    0.0080 H         1 <0>         0.1372
     24 H3          3.3440   -0.4918   -0.0333 H         1 <0>         0.1372
     25 H4          1.2342   -1.7588   -0.0200 H         1 <0>         0.1249
     26 H5         -2.0441   -0.2480    0.0210 H         1 <0>         0.3984
     27 H6         -1.1825   -1.6903    0.0047 H         1 <0>         0.3984
     28 H7          9.8933    4.7340    1.8395 H         1 <0>         0.0697
     29 H8          9.0351    6.2264    1.3467 H         1 <0>         0.0659
     30 H9         10.0963    5.8814    3.8882 H         1 <0>         0.0739
     31 H10         8.6371    6.8809    3.5803 H         1 <0>         0.0714
     32 H11         7.6379    5.3030    5.0201 H         1 <0>         0.0667
     33 H12         8.8311    4.0345    4.6107 H         1 <0>         0.0748
@<TRIPOS>BOND
     1    1    6 ar
     2    1    2 ar
     3    1   22 1
     4    2    3 ar
     5    2   23 1
     6    3    4 ar
     7    3    8 1
     8    4    5 ar
     9    4   24 1
    10    5    6 ar
    11    5   25 1
    12    6    7 1
    13    7   26 1
    14    7   27 1
    15    8    9 2
    16    8   10 2
    17    8   11 1
    18   11   12 1
    19   12   16 1
    20   12   13 2
    21   13   14 1
    22   13   20 1
    23   14   19 1
    24   14   15 2
    25   15   16 1
    26   15   17 1
    27   17   18 1
    28   17   28 1
    29   17   29 1
    30   18   19 1
    31   18   30 1
    32   18   31 1
    33   19   32 1
    34   19   33 1
    35   20   21 3
@<TRIPOS>MOLECULE
ZINC49548689
   50    50     0     0     0
SMALL
USER_CHARGES

@<TRIPOS>ATOM
      1 C1         -0.0187    1.5258    0.0104 C.3       1 <0>        -0.1532
      2 C2          0.0021   -0.0041    0.0020 C.3       1 <0>        -0.1265
      3 C3          0.7182   -0.4975   -1.2568 C.3       1 <0>        -0.1155
      4 C4          0.7390   -2.0273   -1.2652 C.3       1 <0>        -0.0880
      5 C5         -0.6921   -2.5562   -1.3801 C.3       1 <0>        -0.1102
      6 C6         -0.6714   -4.0860   -1.3885 C.3       1 <0>        -0.1257
      7 C7          0.1515   -4.5783   -2.5807 C.3       1 <0>         0.1674
      8 C8          1.5826   -4.0495   -2.4658 C.3       1 <0>        -0.1282
      9 C9          1.5619   -2.5197   -2.4574 C.3       1 <0>        -0.1107
     10 N1          0.1714   -6.0432   -2.5888 N.am      1 <0>        -0.7512
     11 C10         0.3722   -6.7080   -3.7438 C.2       1 <0>         0.7100
     12 O1          0.5369   -6.0921   -4.7791 O.2       1 <0>        -0.5953
     13 N2          0.3905   -8.0557   -3.7512 N.am      1 <0>        -0.7108
     14 C11         0.6088   -8.7784   -5.0067 C.3       1 <0>         0.1033
     15 H1          1.3035   -8.2181   -5.6324 H         1 <0>         0.0773
     16 C12        -0.7037   -8.9361   -5.7302 C.2       1 <0>         0.4937
     17 O2         -1.7267   -8.4866   -5.2424 O.co2     1 <0>        -0.6869
     18 O3         -0.7427   -9.5134   -6.8035 O.co2     1 <0>        -0.6945
     19 C13         1.1941  -10.1594   -4.7050 C.3       1 <0>        -0.0600
     20 C14         0.2188  -10.9459   -3.8268 C.3       1 <0>        -0.1344
     21 C15         1.4220  -10.9142   -6.0162 C.3       1 <0>        -0.1447
     22 C16         2.5266   -9.9993   -3.9705 C.3       1 <0>        -0.1351
     23 H2          1.0039    1.9031    0.0027 H         1 <0>         0.0516
     24 H3         -0.5459    1.8868   -0.8726 H         1 <0>         0.0530
     25 H4         -0.5289    1.8773    0.9072 H         1 <0>         0.0509
     26 H5          0.5293   -0.3651    0.8851 H         1 <0>         0.0588
     27 H6         -1.0205   -0.3814    0.0098 H         1 <0>         0.0640
     28 H7          0.1910   -0.1364   -2.1398 H         1 <0>         0.0622
     29 H8          1.7408   -0.1202   -1.2645 H         1 <0>         0.0599
     30 H9          1.1870   -2.3897   -0.3400 H         1 <0>         0.0685
     31 H10        -1.2784   -2.2054   -0.5308 H         1 <0>         0.0658
     32 H11        -1.1402   -2.1938   -2.3053 H         1 <0>         0.0650
     33 H12        -0.2233   -4.4484   -0.4633 H         1 <0>         0.0635
     34 H13        -1.6909   -4.4627   -1.4704 H         1 <0>         0.0688
     35 H14        -0.2966   -4.2159   -3.5059 H         1 <0>         0.0849
     36 H15         2.0307   -4.4119   -1.5406 H         1 <0>         0.0580
     37 H16         2.1689   -4.4002   -3.3152 H         1 <0>         0.0681
     38 H17         1.1138   -2.1573   -3.3826 H         1 <0>         0.0642
     39 H18         2.5814   -2.1429   -2.3755 H         1 <0>         0.0604
     40 H19         0.0400   -6.5345   -1.7628 H         1 <0>         0.3879
     41 H20         0.2591   -8.5470   -2.9253 H         1 <0>         0.3834
     42 H21        -0.7305  -11.0600   -4.3501 H         1 <0>         0.0640
     43 H22         0.6358  -11.9298   -3.6119 H         1 <0>         0.0470
     44 H23         0.0564  -10.4082   -2.8927 H         1 <0>         0.0435
     45 H24         2.1168  -10.3539   -6.6419 H         1 <0>         0.0445
     46 H25         1.8390  -11.8981   -5.8013 H         1 <0>         0.0359
     47 H26         0.4727  -11.0283   -6.5396 H         1 <0>         0.1002
     48 H27         2.3642   -9.4616   -3.0363 H         1 <0>         0.0475
     49 H28         2.9436  -10.9832   -3.7556 H         1 <0>         0.0479
     50 H29         3.2213   -9.4390   -4.5962 H         1 <0>         0.0497
@<TRIPOS>BOND
     1    1    2 1
     2    1   23 1
     3    1   24 1
     4    1   25 1
     5    2    3 1
     6    2   26 1
     7    2   27 1
     8    3    4 1
     9    3   28 1
    10    3   29 1
    11    4    9 1
    12    4    5 1
    13    4   30 1
    14    5    6 1
    15    5   31 1
    16    5   32 1
    17    6    7 1
    18    6   33 1
    19    6   34 1
    20    7    8 1
    21    7   10 1
    22    7   35 1
    23    8    9 1
    24    8   36 1
    25    8   37 1
    26    9   38 1
    27    9   39 1
    28   10   11 am
    29   10   40 1
    30   11   12 2
    31   11   13 am
    32   13   14 1
    33   13   41 1
    34   14   15 1
    35   14   16 1
    36   14   19 1
    37   16   17 2
    38   16   18 1
    39   19   20 1
    40   19   21 1
    41   19   22 1
    42   20   42 1
    43   20   43 1
    44   20   44 1
    45   21   45 1
    46   21   46 1
    47   21   47 1
    48   22   48 1
    49   22   49 1
    50   22   50 1
@<TRIPOS>MOLECULE
ZINC61827601
   46    46     0     0     0
SMALL
USER_CHARGES

@<TRIPOS>ATOM
      1 C1         -0.0187    1.5258    0.0104 C.3       1 <0>        -0.1479
      2 C2          0.0021   -0.0041    0.0020 C.3       1 <0>        -0.0986
      3 H1         -1.0205   -0.3814    0.0098 H         1 <0>         0.0858
      4 C3          0.7182   -0.4975   -1.2568 C.3       1 <0>        -0.1150
      5 C4          0.7390   -2.0273   -1.2652 C.3       1 <0>        -0.1204
      6 C5          1.4790   -2.5342   -0.0257 C.3       1 <0>        -0.1179
      7 C6          0.7628   -2.0407    1.2331 C.3       1 <0>        -0.1337
      8 C7          0.7421   -0.5109    1.2415 C.3       1 <0>         0.1676
      9 H2          0.2319   -0.1594    2.1383 H         1 <0>         0.0899
     10 N1          2.1165   -0.0038    1.2311 N.am      1 <0>        -0.7331
     11 C8          2.7950    0.1277    2.3882 C.2       1 <0>         0.6917
     12 O1          2.2666   -0.1743    3.4402 O.2       1 <0>        -0.5308
     13 N2          4.0594    0.5943    2.3786 N.am      1 <0>        -0.6974
     14 C9          4.7379    0.7258    3.5357 C.2       1 <0>         0.5123
     15 O2          4.2109    0.4245    4.5851 O.2       1 <0>        -0.4443
     16 C10         6.1517    1.2474    3.5250 C.3       1 <0>        -0.1309
     17 C11         6.6874    1.2983    4.9572 C.3       1 <0>        -0.0212
     18 C12         5.8079    2.2259    5.7980 C.3       1 <0>        -0.1576
     19 C13         6.6672   -0.1080    5.5595 C.3       1 <0>        -0.1575
     20 C14         8.1228    1.8279    4.9464 C.3       1 <0>        -0.1751
     21 C15         8.6504    1.8780    6.3571 C.2       1 <0>         0.4940
     22 O3          7.9439    1.5230    7.2852 O.co2     1 <0>        -0.6802
     23 O4          9.7838    2.2735    6.5704 O.co2     1 <0>        -0.7096
     24 H3          1.0039    1.9031    0.0027 H         1 <0>         0.0554
     25 H4         -0.5459    1.8868   -0.8726 H         1 <0>         0.0562
     26 H5         -0.5289    1.8773    0.9072 H         1 <0>         0.0573
     27 H6          0.1910   -0.1364   -2.1398 H         1 <0>         0.0657
     28 H7          1.7408   -0.1202   -1.2645 H         1 <0>         0.0596
     29 H8         -0.2836   -2.4046   -1.2575 H         1 <0>         0.0627
     30 H9          1.2492   -2.3788   -2.1620 H         1 <0>         0.0614
     31 H10         1.4937   -3.6240   -0.0317 H         1 <0>         0.0610
     32 H11         2.5015   -2.1569   -0.0334 H         1 <0>         0.0610
     33 H12        -0.2598   -2.4180    1.2409 H         1 <0>         0.0712
     34 H13         1.2900   -2.4018    2.1162 H         1 <0>         0.0706
     35 H14         2.5382    0.2372    0.3915 H         1 <0>         0.3938
     36 H15         4.4811    0.8353    1.5390 H         1 <0>         0.4045
     37 H16         6.7783    0.5866    2.9260 H         1 <0>         0.0906
     38 H17         6.1661    2.2493    3.0959 H         1 <0>         0.0907
     39 H18         4.7853    1.8486    5.8058 H         1 <0>         0.0595
     40 H19         6.1896    2.2621    6.8184 H         1 <0>         0.0964
     41 H20         5.8223    3.2278    5.3690 H         1 <0>         0.0241
     42 H21         7.2938   -0.7688    4.9605 H         1 <0>         0.0241
     43 H22         7.0488   -0.0718    6.5799 H         1 <0>         0.0964
     44 H23         5.6446   -0.4853    5.5673 H         1 <0>         0.0595
     45 H24         8.7494    1.1670    4.3474 H         1 <0>         0.0539
     46 H25         8.1372    2.8298    4.5173 H         1 <0>         0.0539
@<TRIPOS>BOND
     1    1    2 1
     2    1   24 1
     3    1   25 1
     4    1   26 1
     5    2    3 1
     6    2    8 1
     7    2    4 1
     8    4    5 1
     9    4   27 1
    10    4   28 1
    11    5    6 1
    12    5   29 1
    13    5   30 1
    14    6    7 1
    15    6   31 1
    16    6   32 1
    17    7    8 1
    18    7   33 1
    19    7   34 1
    20    8    9 1
    21    8   10 1
    22   10   11 am
    23   10   35 1
    24   11   12 2
    25   11   13 am
    26   13   14 am
    27   13   36 1
    28   14   15 2
    29   14   16 1
    30   16   17 1
    31   16   37 1
    32   16   38 1
    33   17   18 1
    34   17   19 1
    35   17   20 1
    36   18   39 1
    37   18   40 1
    38   18   41 1
    39   19   42 1
    40   19   43 1
    41   19   44 1
    42   20   21 1
    43   20   45 1
    44   20   46 1
    45   21   22 2
    46   21   23 1
@<TRIPOS>MOLECULE
ZINC09334797
   33    35     0     0     0
SMALL
USER_CHARGES

@<TRIPOS>ATOM
      1 C1         -0.0225    1.8097    0.0120 C.3       1 <0>        -0.1274
      2 S1          0.0021   -0.0041    0.0020 S.3       1 <0>        -0.0572
      3 C2          0.8484   -0.4107   -1.4889 C.ar      1 <0>         0.3462
      4 N1          1.2845    0.5693   -2.2680 N.ar      1 <0>        -0.6140
      5 C3          1.9240    0.3056   -3.4052 C.ar      1 <0>         0.4645
      6 O1          2.3650    1.3122   -4.1987 O.3       1 <0>        -0.6890
      7 C4          2.1309   -1.0172   -3.7625 C.ar      1 <0>        -0.3403
      8 C5          1.6685   -2.0264   -2.9178 C.ar      1 <0>         0.3861
      9 N2          1.0343   -1.6864   -1.7944 N.ar      1 <0>        -0.5667
     10 N3          1.8845   -3.3343   -3.2335 N.2       1 <0>        -0.5616
     11 C6          2.7611   -3.6858   -4.1197 C.2       1 <0>         0.3878
     12 C7          3.6208   -2.6752   -4.8295 C.3       1 <0>        -0.0998
     13 C8          2.8352   -1.3786   -5.0428 C.3       1 <0>         0.0316
     14 H1          3.5209   -0.5781   -5.3205 H         1 <0>         0.1073
     15 C9          1.8196   -1.5784   -6.1381 C.ar      1 <0>        -0.0641
     16 C10         0.8423   -2.5473   -6.0046 C.ar      1 <0>        -0.1048
     17 C11        -0.0896   -2.7328   -7.0074 C.ar      1 <0>        -0.1440
     18 C12        -0.0444   -1.9456   -8.1489 C.ar      1 <0>         0.0879
     19 C13         0.9369   -0.9739   -8.2802 C.ar      1 <0>        -0.1458
     20 C14         1.8633   -0.7888   -7.2722 C.ar      1 <0>        -0.0868
     21 O2         -0.9597   -2.1265   -9.1370 O.3       1 <0>        -0.5029
     22 O3          2.9075   -4.9918   -4.4138 O.3       1 <0>        -0.4639
     23 H2          1.0001    2.1870    0.0043 H         1 <0>         0.0838
     24 H3         -0.5497    2.1708   -0.8711 H         1 <0>         0.0833
     25 H4         -0.5327    2.1613    0.9088 H         1 <0>         0.0966
     26 H5          4.5060   -2.4673   -4.2284 H         1 <0>         0.1027
     27 H6          3.9272   -3.0758   -5.7958 H         1 <0>         0.0989
     28 H7          0.8076   -3.1599   -5.1158 H         1 <0>         0.1268
     29 H8         -0.8524   -3.4902   -6.9030 H         1 <0>         0.1222
     30 H9          0.9742   -0.3598   -9.1679 H         1 <0>         0.1245
     31 H10         2.6248   -0.0295   -7.3720 H         1 <0>         0.1290
     32 H11        -1.7574   -1.5891   -9.0374 H         1 <0>         0.3849
     33 H12         2.3195   -5.5755   -3.9152 H         1 <0>         0.4041
@<TRIPOS>BOND
     1    1    2 1
     2    1   23 1
     3    1   24 1
     4    1   25 1
     5    2    3 1
     6    3    9 ar
     7    3    4 ar
     8    4    5 ar
     9    5    6 1
    10    5    7 ar
    11    7   13 1
    12    7    8 ar
    13    8    9 ar
    14    8   10 1
    15   10   11 2
    16   11   12 1
    17   11   22 1
    18   12   13 1
    19   12   26 1
    20   12   27 1
    21   13   14 1
    22   13   15 1
    23   15   20 ar
    24   15   16 ar
    25   16   17 ar
    26   16   28 1
    27   17   18 ar
    28   17   29 1
    29   18   19 ar
    30   18   21 1
    31   19   20 ar
    32   19   30 1
    33   20   31 1
    34   21   32 1
    35   22   33 1
@<TRIPOS>MOLECULE
ZINC37729558
   41    43     0     0     0
SMALL
USER_CHARGES

@<TRIPOS>ATOM
      1 C1         -0.0191    1.5550    0.0106 C.3       1 <0>        -0.1227
      2 C2          1.4710    1.9661   -0.0014 C.3       1 <0>        -0.1209
      3 C3          2.2521    0.6167   -0.0161 C.3       1 <0>        -0.0964
      4 H1          3.2914    0.6642    0.3090 H         1 <0>         0.1013
      5 C4          1.2961   -0.2813    0.8458 C.3       1 <0>        -0.1261
      6 C5          0.0021   -0.0041    0.0020 C.3       1 <0>        -0.1038
      7 H2         -0.9095   -0.4948    0.3429 H         1 <0>         0.0989
      8 C6          0.5032   -0.3798   -1.4259 C.3       1 <0>        -0.1199
      9 C7          2.0106    0.0414   -1.4451 C.3       1 <0>        -0.0867
     10 H3          2.1986    0.8057   -2.1992 H         1 <0>         0.0832
     11 C8          2.9018   -1.1786   -1.6866 C.3       1 <0>        -0.0158
     12 C9          2.7427   -1.6428   -3.1115 C.2       1 <0>         0.1556
     13 N1          3.4506   -1.2525   -4.1330 N.2       1 <0>        -0.2881
     14 N2          3.0400   -1.8558   -5.1926 N.2       1 <0>        -0.2925
     15 C10         2.0561   -2.6516   -4.8831 C.2       1 <0>         0.1788
     16 O1          1.8484   -2.5395   -3.5604 O.3       1 <0>        -0.2231
     17 C11         1.2943   -3.5392   -5.8333 C.3       1 <0>        -0.0270
     18 C12         1.9757   -4.9069   -5.9110 C.3       1 <0>        -0.1173
     19 C13         1.2023   -5.8080   -6.8757 C.3       1 <0>        -0.0912
     20 C14         1.8838   -7.1757   -6.9534 C.3       1 <0>        -0.1841
     21 C15         1.1220   -8.0633   -7.9036 C.2       1 <0>         0.4886
     22 O2          0.1263   -7.6411   -8.4665 O.co2     1 <0>        -0.6993
     23 O3          1.5014   -9.2035   -8.1095 O.co2     1 <0>        -0.7077
     24 H4         -0.5076    1.9235    0.9126 H         1 <0>         0.0622
     25 H5         -0.5247    1.9331   -0.8779 H         1 <0>         0.0633
     26 H6          1.6979    2.5463   -0.8959 H         1 <0>         0.0649
     27 H7          1.7150    2.5367    0.8947 H         1 <0>         0.0646
     28 H8          1.5857   -1.3317    0.8170 H         1 <0>         0.0708
     29 H9          1.2034    0.0845    1.8684 H         1 <0>         0.0708
     30 H10         0.4035   -1.4522   -1.5936 H         1 <0>         0.0683
     31 H11        -0.0507    0.1770   -2.1817 H         1 <0>         0.0643
     32 H12         3.9426   -0.9097   -1.5061 H         1 <0>         0.1099
     33 H13         2.6110   -1.9809   -1.0085 H         1 <0>         0.0968
     34 H14         0.2722   -3.6624   -5.4751 H         1 <0>         0.0981
     35 H15         1.2798   -3.0837   -6.8235 H         1 <0>         0.1130
     36 H16         2.9978   -4.7837   -6.2692 H         1 <0>         0.0671
     37 H17         1.9902   -5.3624   -4.9209 H         1 <0>         0.0617
     38 H18         0.1802   -5.9312   -6.5175 H         1 <0>         0.0633
     39 H19         1.1879   -5.3525   -7.8659 H         1 <0>         0.0650
     40 H20         2.9058   -7.0525   -7.3116 H         1 <0>         0.0568
     41 H21         1.8982   -7.6312   -5.9632 H         1 <0>         0.0555
@<TRIPOS>BOND
     1    1    6 1
     2    1    2 1
     3    1   24 1
     4    1   25 1
     5    2    3 1
     6    2   26 1
     7    2   27 1
     8    3    4 1
     9    3    9 1
    10    3    5 1
    11    5    6 1
    12    5   28 1
    13    5   29 1
    14    6    7 1
    15    6    8 1
    16    8    9 1
    17    8   30 1
    18    8   31 1
    19    9   10 1
    20    9   11 1
    21   11   12 1
    22   11   32 1
    23   11   33 1
    24   12   16 1
    25   12   13 2
    26   13   14 1
    27   14   15 2
    28   15   16 1
    29   15   17 1
    30   17   18 1
    31   17   34 1
    32   17   35 1
    33   18   19 1
    34   18   36 1
    35   18   37 1
    36   19   20 1
    37   19   38 1
    38   19   39 1
    39   20   21 1
    40   20   40 1
    41   20   41 1
    42   21   22 2
    43   21   23 1
@<TRIPOS>MOLECULE
ZINC40224246
   43    43     0     0     0
SMALL
USER_CHARGES

@<TRIPOS>ATOM
      1 C1          0.5616    1.1692   -0.1423 C.3       1 <0>        -0.1786
      2 C2          0.3477   -0.3458   -0.1360 C.3       1 <0>         0.1035
      3 N1          0.8690   -0.9177   -1.3800 N.am      1 <0>        -0.6184
      4 C3          2.2632   -1.3614   -1.4544 C.3       1 <0>         0.1247
      5 C4          2.3532   -2.8317   -1.0409 C.3       1 <0>        -0.0135
      6 H1          1.6752   -3.4241   -1.6553 H         1 <0>         0.1178
      7 C5          1.9618   -2.9724    0.4314 C.3       1 <0>        -0.1470
      8 C6          3.7321   -3.3110   -1.2300 C.1       1 <0>         0.2183
      9 N2          4.7963   -3.6809   -1.3759 N.1       1 <0>        -0.4388
     10 C7          0.0659   -1.0357   -2.4559 C.2       1 <0>         0.5206
     11 O1          0.4974   -1.5092   -3.4857 O.2       1 <0>        -0.5300
     12 C8         -1.3683   -0.5793   -2.3793 C.3       1 <0>        -0.1338
     13 C9         -2.0122   -0.6865   -3.7631 C.3       1 <0>        -0.0154
     14 C10        -3.5057   -0.3087   -3.6817 C.3       1 <0>        -0.1028
     15 C11        -4.1971   -1.2776   -4.6727 C.3       1 <0>        -0.1288
     16 C12        -3.4130   -2.5970   -4.4641 C.3       1 <0>        -0.1262
     17 C13        -1.9533   -2.1414   -4.2606 C.3       1 <0>        -0.1039
     18 C14        -1.2906    0.2342   -4.7492 C.3       1 <0>        -0.1786
     19 C15        -1.3893    1.6596   -4.2700 C.2       1 <0>         0.4917
     20 O2         -2.0703    1.9293   -3.2953 O.co2     1 <0>        -0.6934
     21 O3         -0.7882    2.5431   -4.8570 O.co2     1 <0>        -0.7092
     22 H2          1.6268    1.3854   -0.2233 H         1 <0>         0.0535
     23 H3          0.0365    1.6067   -0.9914 H         1 <0>         0.0747
     24 H4          0.1737    1.5947    0.7832 H         1 <0>         0.0643
     25 H5          0.8728   -0.7833    0.7131 H         1 <0>         0.0787
     26 H6         -0.7175   -0.5620   -0.0551 H         1 <0>         0.0829
     27 H7          2.6264   -1.2483   -2.4759 H         1 <0>         0.0914
     28 H8          2.8731   -0.7571   -0.7829 H         1 <0>         0.0827
     29 H9          2.6398   -2.3800    1.0458 H         1 <0>         0.0639
     30 H10         0.9407   -2.6175    0.5714 H         1 <0>         0.0813
     31 H11         2.0259   -4.0199    0.7260 H         1 <0>         0.0627
     32 H12        -1.9128   -1.2087   -1.6754 H         1 <0>         0.0760
     33 H13        -1.4024    0.4566   -2.0419 H         1 <0>         0.1292
     34 H14        -3.8836   -0.4629   -2.6710 H         1 <0>         0.0525
     35 H15        -3.6551    0.7254   -3.9922 H         1 <0>         0.0886
     36 H16        -5.2483   -1.4081   -4.4155 H         1 <0>         0.0548
     37 H17        -4.0904   -0.9227   -5.6978 H         1 <0>         0.0599
     38 H18        -3.7760   -3.1207   -3.5798 H         1 <0>         0.0554
     39 H19        -3.4948   -3.2328   -5.3457 H         1 <0>         0.0526
     40 H20        -1.4114   -2.1914   -5.2050 H         1 <0>         0.0607
     41 H21        -1.4660   -2.7711   -3.5162 H         1 <0>         0.0531
     42 H22        -0.2418   -0.0550   -4.8155 H         1 <0>         0.0719
     43 H23        -1.7540    0.1484   -5.7321 H         1 <0>         0.0512
@<TRIPOS>BOND
     1    1    2 1
     2    1   22 1
     3    1   23 1
     4    1   24 1
     5    2    3 1
     6    2   25 1
     7    2   26 1
     8    3    4 1
     9    3   10 am
    10    4    5 1
    11    4   27 1
    12    4   28 1
    13    5    6 1
    14    5    7 1
    15    5    8 1
    16    7   29 1
    17    7   30 1
    18    7   31 1
    19    8    9 3
    20   10   11 2
    21   10   12 1
    22   12   13 1
    23   12   32 1
    24   12   33 1
    25   13   17 1
    26   13   14 1
    27   13   18 1
    28   14   15 1
    29   14   34 1
    30   14   35 1
    31   15   16 1
    32   15   36 1
    33   15   37 1
    34   16   17 1
    35   16   38 1
    36   16   39 1
    37   17   40 1
    38   17   41 1
    39   18   19 1
    40   18   42 1
    41   18   43 1
    42   19   20 2
    43   19   21 1
@<TRIPOS>MOLECULE
ZINC48963902
   46    46     0     0     0
SMALL
USER_CHARGES

@<TRIPOS>ATOM
      1 C1         -2.4289    1.8875   -0.3309 C.3       1 <0>        -0.1698
      2 C2         -2.5171    0.3664   -0.4698 C.3       1 <0>         0.1116
      3 N1         -3.6643   -0.1282    0.2954 N.am      1 <0>        -0.6199
      4 C3         -4.9780   -0.2392   -0.3435 C.3       1 <0>         0.1265
      5 C4         -5.1241   -1.6268   -0.9712 C.3       1 <0>         0.0641
      6 H1         -5.0211   -2.3990   -0.2088 H         1 <0>         0.0829
      7 C5         -6.4945   -1.7534   -1.6832 C.3       1 <0>        -0.1490
      8 C6         -6.1830   -2.8597   -2.7277 C.3       1 <0>        -0.1548
      9 C7         -4.7091   -2.5688   -3.0833 C.3       1 <0>         0.0510
     10 O1         -4.1437   -1.8124   -2.0045 O.3       1 <0>        -0.3739
     11 C8         -3.5111   -0.4810    1.5871 C.2       1 <0>         0.5310
     12 O2         -4.4609   -0.8904    2.2206 O.2       1 <0>        -0.5129
     13 C9         -2.1598   -0.3667    2.2443 C.3       1 <0>        -0.1028
     14 C10        -2.2600   -0.8272    3.6999 C.3       1 <0>        -0.1122
     15 C11        -3.2655    0.0527    4.4451 C.3       1 <0>        -0.1308
     16 C12        -0.8880   -0.7113    4.3671 C.3       1 <0>        -0.0736
     17 C13         0.1249   -1.5657    3.6023 C.3       1 <0>        -0.1416
     18 C14        -0.4360    0.7504    4.3530 C.3       1 <0>        -0.1461
     19 C15        -2.7196   -2.2618    3.7424 C.2       1 <0>         0.5218
     20 O3         -3.0183   -2.7750    4.8073 O.co2     1 <0>        -0.7070
     21 O4         -2.7928   -2.9093    2.7119 O.co2     1 <0>        -0.6950
     22 H2         -1.5753    2.2555   -0.9003 H         1 <0>         0.0614
     23 H3         -3.3434    2.3409   -0.7133 H         1 <0>         0.0527
     24 H4         -2.3051    2.1498    0.7198 H         1 <0>         0.0561
     25 H5         -2.6409    0.1041   -1.5206 H         1 <0>         0.0804
     26 H6         -1.6026   -0.0870   -0.0875 H         1 <0>         0.0755
     27 H7         -5.7586   -0.0942    0.4033 H         1 <0>         0.0905
     28 H8         -5.0706    0.5217   -1.1184 H         1 <0>         0.0716
     29 H9         -7.2698   -2.0762   -0.9884 H         1 <0>         0.0837
     30 H10        -6.7713   -0.8190   -2.1714 H         1 <0>         0.0761
     31 H11        -6.2871   -3.8507   -2.2860 H         1 <0>         0.0763
     32 H12        -6.8215   -2.7558   -3.6050 H         1 <0>         0.0778
     33 H13        -4.1651   -3.5061   -3.2008 H         1 <0>         0.0638
     34 H14        -4.6584   -1.9922   -4.0069 H         1 <0>         0.0634
     35 H15        -1.4434   -0.9937    1.7133 H         1 <0>         0.0893
     36 H16        -1.8274    0.6709    2.2135 H         1 <0>         0.0680
     37 H17        -4.2430   -0.0299    3.9698 H         1 <0>         0.0699
     38 H18        -3.3369   -0.2753    5.4821 H         1 <0>         0.0500
     39 H19        -2.9331    1.0904    4.4144 H         1 <0>         0.0288
     40 H20        -0.9542   -1.0612    5.3972 H         1 <0>         0.0698
     41 H21        -0.1972   -2.6070    3.6123 H         1 <0>         0.0604
     42 H22         0.1911   -1.2158    2.5721 H         1 <0>         0.0487
     43 H23         1.1023   -1.4831    4.0776 H         1 <0>         0.0405
     44 H24        -1.1398    1.3538    4.9263 H         1 <0>         0.0527
     45 H25         0.5560    0.8282    4.7980 H         1 <0>         0.0439
     46 H26        -0.4022    1.1104    3.3247 H         1 <0>         0.0496
@<TRIPOS>BOND
     1    1    2 1
     2    1   22 1
     3    1   23 1
     4    1   24 1
     5    2    3 1
     6    2   25 1
     7    2   26 1
     8    3    4 1
     9    3   11 am
    10    4    5 1
    11    4   27 1
    12    4   28 1
    13    5    6 1
    14    5   10 1
    15    5    7 1
    16    7    8 1
    17    7   29 1
    18    7   30 1
    19    8    9 1
    20    8   31 1
    21    8   32 1
    22    9   10 1
    23    9   33 1
    24    9   34 1
    25   11   12 2
    26   11   13 1
    27   13   14 1
    28   13   35 1
    29   13   36 1
    30   14   15 1
    31   14   16 1
    32   14   19 1
    33   15   37 1
    34   15   38 1
    35   15   39 1
    36   16   17 1
    37   16   18 1
    38   16   40 1
    39   17   41 1
    40   17   42 1
    41   17   43 1
    42   18   44 1
    43   18   45 1
    44   18   46 1
    45   19   20 2
    46   19   21 1
@<TRIPOS>MOLECULE
ZINC51629115
   36    37     0     0     0
SMALL
USER_CHARGES

@<TRIPOS>ATOM
      1 C1          0.1627    1.9599   -1.2817 C.3       1 <0>        -0.1608
      2 C2         -0.3196    0.5969   -0.7812 C.3       1 <0>        -0.1365
      3 C3          0.6061   -0.4987   -1.3138 C.3       1 <0>         0.1833
      4 H1          0.4908   -0.5780   -2.3948 H         1 <0>         0.1080
      5 C4          0.2478   -1.8146   -0.6726 C.ar      1 <0>        -0.1101
      6 C5          0.4929   -2.0173    0.6726 C.ar      1 <0>        -0.1006
      7 C6          0.1643   -3.2244    1.2608 C.ar      1 <0>        -0.1149
      8 C7         -0.4098   -4.2285    0.5038 C.ar      1 <0>        -0.1134
      9 C8         -0.6556   -4.0255   -0.8412 C.ar      1 <0>        -0.1248
     10 C9         -0.3310   -2.8169   -1.4285 C.ar      1 <0>        -0.1059
     11 N1          1.9956   -0.1620   -0.9943 N.pl3     1 <0>        -0.4548
     12 C10         3.1066   -0.4475   -1.7389 C.2       1 <0>         0.1669
     13 N2          4.1362    0.0275   -1.0971 N.2       1 <0>        -0.2905
     14 N3          3.7551    0.5896   -0.0059 N.2       1 <0>        -0.3024
     15 C11         2.4496    0.5072    0.1058 C.2       1 <0>         0.1562
     16 S1          1.4693    1.1379    1.4271 S.3       1 <0>         0.0545
     17 C12         2.6773    1.9021    2.5439 C.3       1 <0>        -0.1812
     18 C13         1.9612    2.4886    3.7331 C.2       1 <0>         0.5157
     19 O1          0.7483    2.3994    3.8193 O.co2     1 <0>        -0.6770
     20 O2          2.5948    3.0523    4.6091 O.co2     1 <0>        -0.6773
     21 C14         3.1348   -1.1769   -3.0573 C.3       1 <0>        -0.0606
     22 H2          0.9473    2.3320   -0.6229 H         1 <0>         0.0744
     23 H3          0.5558    1.8573   -2.2931 H         1 <0>         0.0464
     24 H4         -0.6715    2.6615   -1.2855 H         1 <0>         0.0650
     25 H5         -0.3073    0.5849    0.3087 H         1 <0>         0.0958
     26 H6         -1.3350    0.4184   -1.1351 H         1 <0>         0.0889
     27 H7          0.9414   -1.2328    1.2641 H         1 <0>         0.1384
     28 H8          0.3564   -3.3830    2.3117 H         1 <0>         0.1264
     29 H9         -0.6658   -5.1718    0.9632 H         1 <0>         0.1220
     30 H10        -1.1038   -4.8101   -1.4327 H         1 <0>         0.1225
     31 H11        -0.5265   -2.6569   -2.4785 H         1 <0>         0.1222
     32 H12         3.3869    1.1473    2.8830 H         1 <0>         0.0881
     33 H13         3.2117    2.6918    2.0157 H         1 <0>         0.0896
     34 H14         3.0384   -0.4591   -3.8718 H         1 <0>         0.0814
     35 H15         4.0786   -1.7134   -3.1556 H         1 <0>         0.0915
     36 H16         2.3079   -1.8859   -3.0980 H         1 <0>         0.0735
@<TRIPOS>BOND
     1    1    2 1
     2    1   22 1
     3    1   23 1
     4    1   24 1
     5    2    3 1
     6    2   25 1
     7    2   26 1
     8    3    4 1
     9    3    5 1
    10    3   11 1
    11    5   10 ar
    12    5    6 ar
    13    6    7 ar
    14    6   27 1
    15    7    8 ar
    16    7   28 1
    17    8    9 ar
    18    8   29 1
    19    9   10 ar
    20    9   30 1
    21   10   31 1
    22   11   15 1
    23   11   12 1
    24   12   13 2
    25   12   21 1
    26   13   14 1
    27   14   15 2
    28   15   16 1
    29   16   17 1
    30   17   18 1
    31   17   32 1
    32   17   33 1
    33   18   19 2
    34   18   20 1
    35   21   34 1
    36   21   35 1
    37   21   36 1
@<TRIPOS>MOLECULE
ZINC62960309
   48    49     0     0     0
SMALL
USER_CHARGES

@<TRIPOS>ATOM
      1 C1         -1.3956   -0.5957   -0.4976 C.3       1 <0>        -0.1578
      2 C2         -0.0622   -0.0650    0.0327 C.3       1 <0>        -0.1156
      3 C3          1.0237   -0.2648   -1.0263 C.3       1 <0>        -0.0571
      4 C4          2.3757    0.1749   -0.4596 C.3       1 <0>        -0.1225
      5 C5          2.6889   -0.6441    0.7966 C.3       1 <0>         0.1321
      6 N1          2.6107   -2.0725    0.4616 N.am      1 <0>        -0.6293
      7 C6          1.3876   -2.5836   -0.1719 C.3       1 <0>         0.0642
      8 C7          1.0889   -1.7430   -1.4172 C.3       1 <0>        -0.1219
      9 C8          3.6417   -2.8981    0.7298 C.2       1 <0>         0.7157
     10 O1          4.7496   -2.4407    0.9340 O.2       1 <0>        -0.6052
     11 N2          3.4445   -4.2307    0.7718 N.am      1 <0>        -0.5892
     12 C9          4.5850   -5.1350    0.9382 C.3       1 <0>         0.1767
     13 C10         4.8270   -5.3818    2.4287 C.3       1 <0>        -0.1622
     14 C11         6.1547   -4.9013    3.0178 C.3       1 <0>        -0.1700
     15 C12         5.9063   -6.3967    2.8106 C.3       1 <0>        -0.1818
     16 C13         2.0897   -4.7749    0.6510 C.3       1 <0>        -0.0002
     17 C14         1.8981   -5.3434   -0.7314 C.2       1 <0>         0.4781
     18 O2          2.8088   -5.2982   -1.5408 O.co2     1 <0>        -0.6752
     19 O3          0.8324   -5.8485   -1.0405 O.co2     1 <0>        -0.6946
     20 C15         0.6918    0.5750   -2.2615 C.3       1 <0>        -0.1104
     21 C16         1.7136    0.2874   -3.3633 C.3       1 <0>        -0.1571
     22 H1         -1.7077   -0.0011   -1.3562 H         1 <0>         0.0530
     23 H2         -1.2781   -1.6364   -0.7998 H         1 <0>         0.0637
     24 H3         -2.1510   -0.5277    0.2852 H         1 <0>         0.0485
     25 H4         -0.1580    0.9969    0.2591 H         1 <0>         0.0568
     26 H5          0.2098   -0.6065    0.9388 H         1 <0>         0.0653
     27 H6          3.1537    0.0097   -1.2049 H         1 <0>         0.0696
     28 H7          2.3357    1.2335   -0.2031 H         1 <0>         0.0665
     29 H8          3.6929   -0.4054    1.1475 H         1 <0>         0.0855
     30 H9          1.9625   -0.4111    1.5752 H         1 <0>         0.0570
     31 H10         1.5330   -3.6247   -0.4601 H         1 <0>         0.1439
     32 H11         0.5551   -2.5088    0.5277 H         1 <0>         0.0586
     33 H12         0.1332   -2.0493   -1.8424 H         1 <0>         0.0736
     34 H13         1.8791   -1.8901   -2.1535 H         1 <0>         0.0697
     35 H14         4.3727   -6.0825    0.4429 H         1 <0>         0.0805
     36 H15         5.4734   -4.6847    0.4956 H         1 <0>         0.0763
     37 H16         3.9435   -5.3235    3.0644 H         1 <0>         0.0989
     38 H17         6.8559   -4.4094    2.3436 H         1 <0>         0.0950
     39 H18         6.1449   -4.5266    4.0414 H         1 <0>         0.0851
     40 H19         5.7331   -7.0058    3.6978 H         1 <0>         0.0892
     41 H20         6.4440   -6.8886    2.0000 H         1 <0>         0.0932
     42 H21         1.9473   -5.5627    1.3908 H         1 <0>         0.0638
     43 H22         1.3627   -3.9808    0.8213 H         1 <0>         0.1082
     44 H23        -0.3068    0.3201   -2.6165 H         1 <0>         0.0630
     45 H24         0.7259    1.6329   -2.0015 H         1 <0>         0.0562
     46 H25         1.6174   -0.7492   -3.6865 H         1 <0>         0.0596
     47 H26         1.5318    0.9501   -4.2094 H         1 <0>         0.0470
     48 H27         2.7195    0.4563   -2.9791 H         1 <0>         0.0557
@<TRIPOS>BOND
     1    1    2 1
     2    1   22 1
     3    1   23 1
     4    1   24 1
     5    2    3 1
     6    2   25 1
     7    2   26 1
     8    3    8 1
     9    3    4 1
    10    3   20 1
    11    4    5 1
    12    4   27 1
    13    4   28 1
    14    5    6 1
    15    5   29 1
    16    5   30 1
    17    6    7 1
    18    6    9 am
    19    7    8 1
    20    7   31 1
    21    7   32 1
    22    8   33 1
    23    8   34 1
    24    9   10 2
    25    9   11 am
    26   11   12 1
    27   11   16 1
    28   12   13 1
    29   12   35 1
    30   12   36 1
    31   13   15 1
    32   13   14 1
    33   13   37 1
    34   14   15 1
    35   14   38 1
    36   14   39 1
    37   15   40 1
    38   15   41 1
    39   16   17 1
    40   16   42 1
    41   16   43 1
    42   17   18 2
    43   17   19 1
    44   20   21 1
    45   20   44 1
    46   20   45 1
    47   21   46 1
    48   21   47 1
    49   21   48 1
@<TRIPOS>MOLECULE
ZINC13238041
   47    49     0     0     0
SMALL
USER_CHARGES
5-[[2-[[5-[(2-ethylphenyl)amino]-1,3,4-thiadiazol-2-yl]sulfanyl]acetyl]amino]benzene-1,3-dicarboxylic acid
@<TRIPOS>ATOM
      1 C1          4.0876    2.5478    1.4563 C.3       1 <0>        -0.1515
      2 C2          3.6818    2.1694    0.0305 C.3       1 <0>        -0.0849
      3 C3          2.3833    1.4052    0.0638 C.ar      1 <0>        -0.1242
      4 C4          2.3939    0.0241    0.0746 C.ar      1 <0>        -0.0911
      5 C5          1.2030   -0.6778    0.1052 C.ar      1 <0>        -0.1454
      6 C6         -0.0026   -0.0001    0.1251 C.ar      1 <0>        -0.0899
      7 C7         -0.0206    1.3805    0.1144 C.ar      1 <0>        -0.1598
      8 C8          1.1743    2.0891    0.0837 C.ar      1 <0>         0.1682
      9 N1          1.1598    3.4861    0.0724 N.pl3     1 <0>        -0.6021
     10 C9         -0.0476    4.1680   -0.0295 C.2       1 <0>         0.3206
     11 N2         -1.2775    3.6924   -0.0401 N.2       1 <0>        -0.3507
     12 N3         -2.3442    4.5547   -0.1462 N.2       1 <0>        -0.2902
     13 C10        -2.1310    5.8528   -0.2483 C.2       1 <0>         0.0441
     14 S1         -0.3470    5.9218   -0.1889 S.3       1 <0>         0.0159
     15 S2         -3.2947    7.1668   -0.4026 S.3       1 <0>         0.1470
     16 C11        -4.9046    6.3309   -0.3905 C.3       1 <0>        -0.1549
     17 C12        -6.0031    7.3547   -0.5177 C.2       1 <0>         0.5208
     18 O1         -5.7272    8.5323   -0.6077 O.2       1 <0>        -0.4981
     19 N4         -7.2922    6.9617   -0.5315 N.am      1 <0>        -0.6497
     20 C13        -8.3084    7.9018   -0.7394 C.ar      1 <0>         0.0796
     21 C14        -8.1799    9.1843   -0.2270 C.ar      1 <0>        -0.0756
     22 C15        -9.1890   10.1264   -0.4372 C.ar      1 <0>        -0.1272
     23 C16       -10.3311    9.7735   -1.1537 C.ar      1 <0>        -0.0320
     24 C17       -10.4594    8.4822   -1.6623 C.ar      1 <0>        -0.1267
     25 C18        -9.4439    7.5469   -1.4525 C.ar      1 <0>        -0.0995
     26 C19       -11.6683    8.1035   -2.4229 C.2       1 <0>         0.4983
     27 O2        -11.7791    6.9781   -2.8661 O.co2     1 <0>        -0.6470
     28 C20        -9.0486   11.4940    0.1043 C.2       1 <0>         0.4972
     29 O3         -8.0529   11.8008    0.7286 O.co2     1 <0>        -0.6408
     30 H1          5.0268    3.1005    1.4322 H         1 <0>         0.0604
     31 H2          3.3113    3.1697    1.9021 H         1 <0>         0.0534
     32 H3          4.2138    1.6427    2.0505 H         1 <0>         0.0603
     33 H4          4.4581    1.5474   -0.4153 H         1 <0>         0.0788
     34 H5          3.5556    3.0744   -0.5637 H         1 <0>         0.0653
     35 H6          3.3335   -0.5082    0.0595 H         1 <0>         0.1243
     36 H7          1.2142   -1.7577    0.1132 H         1 <0>         0.1215
     37 H8         -0.9309   -0.5514    0.1486 H         1 <0>         0.1262
     38 H9         -0.9624    1.9090    0.1255 H         1 <0>         0.1745
     39 H10         1.9921    3.9802    0.1357 H         1 <0>         0.4275
     40 H11        -4.9586    5.6342   -1.2270 H         1 <0>         0.1292
     41 H12        -5.0234    5.7849    0.5454 H         1 <0>         0.1285
     42 H13        -7.5159    6.0274   -0.3973 H         1 <0>         0.4062
     43 H14        -7.2965    9.4558    0.3319 H         1 <0>         0.1377
     44 H15       -11.1151   10.4988   -1.3141 H         1 <0>         0.1412
     45 H16        -9.5427    6.5461   -1.8463 H         1 <0>         0.1227
     46 O4        -12.6474    9.0064   -2.6247 O.co2     1 <0>        -0.7523
     47 O5        -10.0250   12.4005   -0.0943 O.co2     1 <0>        -0.7557
@<TRIPOS>BOND
     1    1    2 1
     2    1   30 1
     3    1   31 1
     4    1   32 1
     5    2    3 1
     6    2   33 1
     7    2   34 1
     8    3    8 ar
     9    3    4 ar
    10    4    5 ar
    11    4   35 1
    12    5    6 ar
    13    5   36 1
    14    6    7 ar
    15    6   37 1
    16    7    8 ar
    17    7   38 1
    18    8    9 1
    19    9   10 1
    20    9   39 1
    21   10   14 1
    22   10   11 2
    23   11   12 1
    24   12   13 2
    25   13   14 1
    26   13   15 1
    27   15   16 1
    28   16   17 1
    29   16   40 1
    30   16   41 1
    31   17   18 2
    32   17   19 am
    33   19   20 1
    34   19   42 1
    35   20   25 ar
    36   20   21 ar
    37   21   22 ar
    38   21   43 1
    39   22   23 ar
    40   22   28 1
    41   23   24 ar
    42   23   44 1
    43   24   25 ar
    44   24   26 1
    45   25   45 1
    46   26   27 2
    47   26   46 1
    48   28   29 2
    49   28   47 1
@<TRIPOS>MOLECULE
ZINC17145437
   52    54     0     0     0
SMALL
USER_CHARGES
6-[(2S)-3-benzoyl-4-hydroxy-2-(2-nitrophenyl)-5-oxo-2H-pyrrol-1-yl]hexanoic acid
@<TRIPOS>ATOM
      1 C1         -6.8961    2.5107    9.1307 C.ar      1 <0>        -0.1051
      2 C2         -6.5409    1.5288   10.0389 C.ar      1 <0>        -0.1446
      3 C3         -5.2556    1.0287   10.0513 C.ar      1 <0>        -0.0756
      4 C4         -4.3115    1.5159    9.1448 C.ar      1 <0>        -0.1308
      5 C5         -4.6752    2.5109    8.2348 C.ar      1 <0>        -0.0381
      6 C6         -5.9657    2.9976    8.2293 C.ar      1 <0>        -0.1400
      7 C7         -2.9316    0.9850    9.1525 C.2       1 <0>         0.5236
      8 O1         -2.5906    0.1893   10.0074 O.2       1 <0>        -0.4960
      9 C8         -1.9742    1.4173    8.1300 C.2       1 <0>        -0.4960
     10 C9         -1.2898    2.5849    8.1071 C.2       1 <0>         0.2605
     11 C10        -0.4288    2.6193    6.9058 C.2       1 <0>         0.5112
     12 O2          0.3121    3.5340    6.6050 O.2       1 <0>        -0.5319
     13 N1         -0.5889    1.4891    6.1938 N.am      1 <0>        -0.6136
     14 C11        -1.5612    0.6455    6.8986 C.3       1 <0>         0.2432
     15 H1         -2.4147    0.4250    6.2406 H         1 <0>         0.1150
     16 C12        -0.9224   -0.6604    7.2956 C.ar      1 <0>         0.0044
     17 C13         0.4532   -0.7544    7.3970 C.ar      1 <0>        -0.1116
     18 C14         1.0389   -1.9511    7.7649 C.ar      1 <0>        -0.0686
     19 C15         0.2495   -3.0563    8.0236 C.ar      1 <0>        -0.1355
     20 C16        -1.1254   -2.9637    7.9171 C.ar      1 <0>        -0.0562
     21 C17        -1.7114   -1.7657    7.5528 C.ar      1 <0>        -0.0348
     22 N2         -3.1839   -1.6665    7.4388 N.pl3     1 <0>         0.0375
     23 O3         -3.8847   -2.6078    7.7650 O.2       1 <0>        -0.1818
     24 O4         -3.6947   -0.6437    7.0187 O.3       1 <0>        -0.1440
     25 C18         0.0919    1.1566    4.9399 C.3       1 <0>         0.1321
     26 C19        -0.7434    1.6543    3.7586 C.3       1 <0>        -0.1370
     27 C20        -0.0324    1.3071    2.4490 C.3       1 <0>        -0.1143
     28 C21        -0.8677    1.8048    1.2677 C.3       1 <0>        -0.0982
     29 C22        -0.1567    1.4575   -0.0418 C.3       1 <0>        -0.1566
     30 C23        -0.9794    1.9478   -1.2054 C.2       1 <0>         0.4581
     31 O5         -2.0269    2.5167   -1.0075 O.co2     1 <0>        -0.6402
     32 O6         -0.5485    1.7526   -2.4615 O.co2     1 <0>        -0.7857
     33 O7         -1.3761    3.5626    9.0379 O.3       1 <0>        -0.6609
     34 H2         -7.9040    2.8985    9.1251 H         1 <0>         0.1159
     35 H3         -7.2720    1.1529   10.7394 H         1 <0>         0.1166
     36 H4         -4.9799    0.2620   10.7601 H         1 <0>         0.1210
     37 H5         -3.9488    2.8952    7.5341 H         1 <0>         0.1340
     38 H6         -6.2495    3.7640    7.5232 H         1 <0>         0.1215
     39 H7          1.0700    0.1080    7.1917 H         1 <0>         0.1415
     40 H8          2.1133   -2.0235    7.8478 H         1 <0>         0.1361
     41 H9          0.7073   -3.9921    8.3085 H         1 <0>         0.1389
     42 H10        -1.7420   -3.8272    8.1188 H         1 <0>         0.1460
     43 H11         1.0799    1.6398    4.9198 H         1 <0>         0.0802
     44 H12         0.2156    0.0660    4.8679 H         1 <0>         0.0701
     45 H13        -1.7314    1.1711    3.7787 H         1 <0>         0.0660
     46 H14        -0.8671    2.7449    3.8307 H         1 <0>         0.0694
     47 H15         0.9556    1.7903    2.4289 H         1 <0>         0.0578
     48 H16         0.0913    0.2165    2.3769 H         1 <0>         0.0551
     49 H17        -1.8557    1.3216    1.2879 H         1 <0>         0.0596
     50 H18        -0.9914    2.8954    1.3397 H         1 <0>         0.0605
     51 H19         0.8313    1.9406   -0.0619 H         1 <0>         0.0609
     52 H20        -0.0331    0.3668   -0.1138 H         1 <0>         0.0601
@<TRIPOS>BOND
     1    1    6 ar
     2    1    2 ar
     3    1   34 1
     4    2    3 ar
     5    2   35 1
     6    3    4 ar
     7    3   36 1
     8    4    5 ar
     9    4    7 1
    10    5    6 ar
    11    5   37 1
    12    6   38 1
    13    7    8 2
    14    7    9 1
    15    9   14 1
    16    9   10 2
    17   10   11 1
    18   10   33 1
    19   11   12 2
    20   11   13 am
    21   13   14 1
    22   13   25 1
    23   14   15 1
    24   14   16 1
    25   16   21 ar
    26   16   17 ar
    27   17   18 ar
    28   17   39 1
    29   18   19 ar
    30   18   40 1
    31   19   20 ar
    32   19   41 1
    33   20   21 ar
    34   20   42 1
    35   21   22 1
    36   22   23 2
    37   22   24 1
    38   25   26 1
    39   25   43 1
    40   25   44 1
    41   26   27 1
    42   26   45 1
    43   26   46 1
    44   27   28 1
    45   27   47 1
    46   27   48 1
    47   28   29 1
    48   28   49 1
    49   28   50 1
    50   29   30 1
    51   29   51 1
    52   29   52 1
    53   30   31 2
    54   30   32 1
@<TRIPOS>MOLECULE
ZINC16779107
   54    55     0     0     0
SMALL
USER_CHARGES

@<TRIPOS>ATOM
      1 C1         -0.0187    1.5258    0.0104 C.3       1 <0>        -0.1129
      2 C2          0.0021   -0.0041    0.0020 C.3       1 <0>        -0.0920
      3 C3         -1.4333   -0.5336    0.0129 C.3       1 <0>        -0.1829
      4 C4         -1.4129   -2.0405    0.0046 C.2       1 <0>         0.4877
      5 O1         -0.3489   -2.6357   -0.0088 O.co2     1 <0>        -0.6986
      6 O2         -2.4603   -2.6644    0.0112 O.co2     1 <0>        -0.7101
      7 C5          1.4167    2.0553   -0.0004 C.3       1 <0>        -0.1312
      8 C6          1.3960    3.5852    0.0080 C.3       1 <0>         0.0813
      9 N1          2.7704    4.0923   -0.0024 N.am      1 <0>        -0.5179
     10 C7          3.3890    4.3050    1.1469 C.2       1 <0>         0.5333
     11 O3          2.8469    4.0903    2.2148 O.2       1 <0>        -0.4345
     12 C8          4.7750    4.8173    1.0666 C.2       1 <0>        -0.1811
     13 C9          5.6491    5.1255    2.0702 C.2       1 <0>         0.0266
     14 C10         5.2637    4.9645    3.4113 C.2       1 <0>         0.0248
     15 C11         6.1377    5.2727    4.4149 C.2       1 <0>        -0.1803
     16 C12         5.9612    5.1805    5.8812 C.2       1 <0>         0.5352
     17 O4          4.9232    4.7844    6.3771 O.2       1 <0>        -0.4297
     18 N2          6.9905    5.5505    6.6246 N.am      1 <0>        -0.5185
     19 C13         8.1390    5.9889    6.0706 C.2       1 <0>         0.2818
     20 S1          9.5684    6.5070    6.8576 S.2       1 <0>        -0.3072
     21 S2          7.8123    5.8910    4.3179 S.3       1 <0>         0.0561
     22 C14         6.8801    5.4830    8.0838 C.3       1 <0>         0.0818
     23 C15         7.3452    4.1080    8.5674 C.3       1 <0>        -0.1313
     24 C16         7.2300    4.0375   10.0914 C.3       1 <0>        -0.1127
     25 C17         7.6951    2.6625   10.5750 C.3       1 <0>        -0.0922
     26 C18         7.5798    2.5920   12.0991 C.3       1 <0>        -0.1827
     27 C19         8.0380    1.2377   12.5754 C.2       1 <0>         0.4877
     28 O5          8.4212    0.4059   11.7705 O.co2     1 <0>        -0.6985
     29 O6          8.0254    0.9737   13.7656 O.co2     1 <0>        -0.7105
     30 S3          4.9912    4.9208   -0.7049 S.3       1 <0>         0.0789
     31 C20         3.3771    4.3261   -1.1837 C.2       1 <0>         0.2743
     32 S4          2.7504    4.1073   -2.7617 S.2       1 <0>        -0.3000
     33 H1         -0.5459    1.8868   -0.8726 H         1 <0>         0.0631
     34 H2         -0.5289    1.8773    0.9072 H         1 <0>         0.0606
     35 H3          0.5123   -0.3556   -0.8948 H         1 <0>         0.0598
     36 H4          0.5293   -0.3651    0.8851 H         1 <0>         0.0592
     37 H5         -1.9435   -0.1821    0.9097 H         1 <0>         0.0553
     38 H6         -1.9605   -0.1726   -0.8702 H         1 <0>         0.0553
     39 H7          1.9439    1.6943    0.8826 H         1 <0>         0.0694
     40 H8          1.9269    1.7038   -0.8972 H         1 <0>         0.0739
     41 H9          0.8688    3.9463   -0.8751 H         1 <0>         0.1146
     42 H10         0.8858    3.9367    0.9048 H         1 <0>         0.1070
     43 H11         6.6364    5.4930    1.8324 H         1 <0>         0.1593
     44 H12         4.2764    4.5970    3.6491 H         1 <0>         0.1805
     45 H13         7.5047    6.2561    8.5316 H         1 <0>         0.1145
     46 H14         5.8421    5.6394    8.3773 H         1 <0>         0.1062
     47 H15         6.7207    3.3350    8.1197 H         1 <0>         0.0693
     48 H16         8.3833    3.9516    8.2739 H         1 <0>         0.0741
     49 H17         7.8545    4.8106   10.5392 H         1 <0>         0.0631
     50 H18         6.1920    4.1939   10.3849 H         1 <0>         0.0603
     51 H19         7.0705    1.8895   10.1273 H         1 <0>         0.0592
     52 H20         8.7331    2.5061   10.2816 H         1 <0>         0.0599
     53 H21         8.2044    3.3651   12.5468 H         1 <0>         0.0553
     54 H22         6.5418    2.7484   12.3925 H         1 <0>         0.0551
@<TRIPOS>BOND
     1    1    2 1
     2    1    7 1
     3    1   33 1
     4    1   34 1
     5    2    3 1
     6    2   35 1
     7    2   36 1
     8    3    4 1
     9    3   37 1
    10    3   38 1
    11    4    5 2
    12    4    6 1
    13    7    8 1
    14    7   39 1
    15    7   40 1
    16    8    9 1
    17    8   41 1
    18    8   42 1
    19    9   31 1
    20    9   10 am
    21   10   11 2
    22   10   12 1
    23   12   13 2
    24   12   30 1
    25   13   14 1
    26   13   43 1
    27   14   15 2
    28   14   44 1
    29   15   21 1
    30   15   16 1
    31   16   17 2
    32   16   18 am
    33   18   19 1
    34   18   22 1
    35   19   20 2
    36   19   21 1
    37   22   23 1
    38   22   45 1
    39   22   46 1
    40   23   24 1
    41   23   47 1
    42   23   48 1
    43   24   25 1
    44   24   49 1
    45   24   50 1
    46   25   26 1
    47   25   51 1
    48   25   52 1
    49   26   27 1
    50   26   53 1
    51   26   54 1
    52   27   28 2
    53   27   29 1
    54   30   31 1
    55   31   32 2
@<TRIPOS>MOLECULE
ZINC13092950
   44    45     0     0     0
SMALL
USER_CHARGES

@<TRIPOS>ATOM
      1 C1         -0.0385    1.5437    0.0118 C.3       1 <0>        -0.1413
      2 C2         -0.0052    0.0141    0.0049 C.3       1 <0>        -0.1064
      3 H1          0.5093   -0.3341   -0.8907 H         1 <0>         0.1220
      4 C3         -1.4148   -0.5191    0.0137 C.2       1 <0>         0.5461
      5 O1         -1.9413   -0.8238    1.0630 O.2       1 <0>        -0.4963
      6 N1         -2.0902   -0.6573   -1.1443 N.am      1 <0>        -0.6617
      7 C4         -3.3648   -1.2395   -1.1468 C.ar      1 <0>         0.1882
      8 C5         -4.2256   -1.0334   -0.0787 C.ar      1 <0>        -0.0925
      9 C6         -5.4823   -1.6083   -0.0836 C.ar      1 <0>        -0.0622
     10 C7         -5.8850   -2.3893   -1.1513 C.ar      1 <0>        -0.0369
     11 C8         -5.0324   -2.5995   -2.2191 C.ar      1 <0>        -0.1326
     12 C9         -3.7730   -2.0220   -2.2245 C.ar      1 <0>         0.1050
     13 O2         -2.9355   -2.2232   -3.2766 O.3       1 <0>        -0.3031
     14 C10        -3.4214   -3.0367   -4.3463 C.3       1 <0>         0.0226
     15 N2         -7.2323   -3.0023   -1.1507 N.pl3     1 <0>         0.0404
     16 O3         -7.9790   -2.8199   -0.2175 O.2       1 <0>        -0.1593
     17 O4         -7.5860   -3.6854   -2.0834 O.3       1 <0>        -0.1692
     18 S1          0.8745   -0.5782    1.4765 S.3       1 <0>         0.0235
     19 C11         2.5239   -0.0021    1.2478 C.ar      1 <0>         0.2531
     20 N3          3.4456   -0.2700    2.1649 N.ar      1 <0>        -0.5764
     21 C12         4.6877    0.1670    1.9871 C.ar      1 <0>         0.4216
     22 O5          5.6494   -0.0917    2.9062 O.3       1 <0>        -0.6571
     23 C13         4.9824    0.8973    0.8351 C.ar      1 <0>        -0.0366
     24 N4          4.0241    1.1324   -0.0415 N.ar      1 <0>        -0.2056
     25 N5          2.8319    0.6903    0.1578 N.ar      1 <0>        -0.4072
     26 C14         6.3783    1.4118    0.5949 C.3       1 <0>        -0.0109
     27 C15         7.1826    0.3634   -0.1764 C.3       1 <0>        -0.1653
     28 C16         8.5786    0.8779   -0.4166 C.2       1 <0>         0.4975
     29 O6          8.9003    1.9809   -0.0087 O.co2     1 <0>        -0.7012
     30 O7          9.3862    0.1912   -1.0188 O.co2     1 <0>        -0.7186
     31 H2          0.9810    1.9293    0.0054 H         1 <0>         0.1026
     32 H3         -0.5671    1.8996   -0.8725 H         1 <0>         0.0592
     33 H4         -0.5530    1.8919    0.9074 H         1 <0>         0.0657
     34 H5         -1.6941   -0.3537   -1.9761 H         1 <0>         0.4243
     35 H6         -3.9136   -0.4242    0.7567 H         1 <0>         0.1735
     36 H7         -6.1515   -1.4475    0.7488 H         1 <0>         0.1589
     37 H8         -5.3498   -3.2106   -3.0511 H         1 <0>         0.1601
     38 H9         -3.6598   -4.0305   -3.9675 H         1 <0>         0.0611
     39 H10        -4.3185   -2.5839   -4.7685 H         1 <0>         0.0602
     40 H11        -2.6564   -3.1161   -5.1187 H         1 <0>         0.1101
     41 H12         6.3311    2.3330    0.0142 H         1 <0>         0.0620
     42 H13         6.8622    1.6096    1.5513 H         1 <0>         0.0772
     43 H14         7.2299   -0.5578    0.4043 H         1 <0>         0.0560
     44 H15         6.6987    0.1656   -1.1329 H         1 <0>         0.0497
@<TRIPOS>BOND
     1    1    2 1
     2    1   31 1
     3    1   32 1
     4    1   33 1
     5    2    3 1
     6    2    4 1
     7    2   18 1
     8    4    5 2
     9    4    6 am
    10    6    7 1
    11    6   34 1
    12    7   12 ar
    13    7    8 ar
    14    8    9 ar
    15    8   35 1
    16    9   10 ar
    17    9   36 1
    18   10   11 ar
    19   10   15 1
    20   11   12 ar
    21   11   37 1
    22   12   13 1
    23   13   14 1
    24   14   38 1
    25   14   39 1
    26   14   40 1
    27   15   16 2
    28   15   17 1
    29   18   19 1
    30   19   20 ar
    31   19   25 ar
    32   20   21 ar
    33   21   22 1
    34   21   23 ar
    35   23   24 ar
    36   23   26 1
    37   24   25 ar
    38   26   27 1
    39   26   41 1
    40   26   42 1
    41   27   28 1
    42   27   43 1
    43   27   44 1
    44   28   29 2
    45   28   30 1
@<TRIPOS>MOLECULE
ZINC02244167
   55    58     0     0     0
SMALL
USER_CHARGES
3-[4-(difluoro-phosphono-methyl)phenyl]-2-(9H-fluoren-9-ylmethoxycarbonylamino)propanoic acid
@<TRIPOS>ATOM
      1 C1          0.2062    1.8607   -0.3742 C.ar      1 <0>        -0.1202
      2 C2         -1.0182    2.5041   -0.3981 C.ar      1 <0>        -0.1019
      3 C3         -1.0786    3.8735   -0.5857 C.ar      1 <0>        -0.0824
      4 C4          0.0815    4.5983   -0.7599 C.ar      1 <0>        -0.0770
      5 C5          1.3180    3.9591   -0.7432 C.ar      1 <0>        -0.0741
      6 C6          1.3716    2.5776   -0.5480 C.ar      1 <0>        -0.0992
      7 C7          2.3941    4.9591   -0.9527 C.ar      1 <0>        -0.0382
      8 C8          3.7815    4.8171   -1.0175 C.ar      1 <0>        -0.1031
      9 C9          4.5783    5.9237   -1.2251 C.ar      1 <0>        -0.1202
     10 C10         4.0082    7.1758   -1.3702 C.ar      1 <0>        -0.1208
     11 C11         2.6341    7.3239   -1.3078 C.ar      1 <0>        -0.0933
     12 C12         1.8299    6.2231   -1.1004 C.ar      1 <0>        -0.0817
     13 C13         0.3330    6.0688   -0.9869 C.3       1 <0>        -0.0104
     14 C14        -0.3432    6.5253   -2.2813 C.3       1 <0>         0.1096
     15 O1         -1.7850    6.4828   -2.1151 O.3       1 <0>        -0.3731
     16 C15        -2.5331    6.8569   -3.1702 C.2       1 <0>         0.6556
     17 O2         -1.9959    7.2093   -4.2015 O.2       1 <0>        -0.5815
     18 N1         -3.8779    6.8406   -3.0823 N.am      1 <0>        -0.6683
     19 C16        -4.6920    7.2477   -4.2303 C.3       1 <0>         0.1264
     20 H1         -4.1999    6.9387   -5.1525 H         1 <0>         0.0921
     21 C17        -6.0683    6.5856   -4.1399 C.3       1 <0>        -0.0648
     22 C18        -5.9165    5.0917   -4.2685 C.ar      1 <0>        -0.0867
     23 C19        -5.9737    4.4959   -5.5146 C.ar      1 <0>        -0.1227
     24 C20        -5.8301    3.1262   -5.6330 C.ar      1 <0>        -0.0757
     25 C21        -5.6383    2.3512   -4.5044 C.ar      1 <0>        -0.1133
     26 C22        -5.5863    2.9465   -3.2579 C.ar      1 <0>        -0.0817
     27 C23        -5.7257    4.3167   -3.1399 C.ar      1 <0>        -0.1253
     28 C24        -5.4855    0.8575   -4.6331 C.3       1 <0>        -0.2343
     29 F1         -4.8642    0.5554   -5.8497 F         1 <0>        -0.2163
     30 F2         -4.7032    0.3762   -3.5779 F         1 <0>        -0.2163
     31 P1         -7.1294    0.0715   -4.5787 P.3       1 <0>         2.1512
     32 O3         -6.9867   -1.3860   -4.7927 O.2       1 <0>        -1.1243
     33 C25        -4.8541    8.7460   -4.2251 C.2       1 <0>         0.4646
     34 O4         -4.3421    9.4060   -3.3521 O.co2     1 <0>        -0.6345
     35 H2          0.2495    0.7922   -0.2233 H         1 <0>         0.1257
     36 H3         -1.9279    1.9372   -0.2664 H         1 <0>         0.1340
     37 H4         -2.0352    4.3746   -0.5996 H         1 <0>         0.1349
     38 H5          2.3252    2.0707   -0.5327 H         1 <0>         0.1176
     39 H6          4.2307    3.8416   -0.9041 H         1 <0>         0.1209
     40 H7          5.6513    5.8122   -1.2748 H         1 <0>         0.1222
     41 H8          4.6367    8.0389   -1.5328 H         1 <0>         0.1246
     42 H9          2.1910    8.3022   -1.4213 H         1 <0>         0.1275
     43 H10        -0.0411    6.6482   -0.1429 H         1 <0>         0.1136
     44 H11        -0.0340    7.5445   -2.5129 H         1 <0>         0.0737
     45 H12        -0.0517    5.8631   -3.0966 H         1 <0>         0.0697
     46 H13        -4.3068    6.5594   -2.2590 H         1 <0>         0.3984
     47 H14        -6.5234    6.8231   -3.1784 H         1 <0>         0.0699
     48 H15        -6.7036    6.9568   -4.9441 H         1 <0>         0.0985
     49 H16        -6.1273    5.1010   -6.3959 H         1 <0>         0.1199
     50 H17        -5.8704    2.6612   -6.6069 H         1 <0>         0.1234
     51 H18        -5.4365    2.3410   -2.3762 H         1 <0>         0.1216
     52 H19        -5.6850    4.7818   -2.1660 H         1 <0>         0.1126
     53 O5         -7.8050    0.3393   -3.1421 O.3       1 <0>        -1.1509
     54 O6         -8.0609    0.6950   -5.7344 O.3       1 <0>        -1.1495
     55 O7         -5.5671    9.3472   -5.1904 O.co2     1 <0>        -0.7662
@<TRIPOS>BOND
     1    1    6 ar
     2    1    2 ar
     3    1   35 1
     4    2    3 ar
     5    2   36 1
     6    3    4 ar
     7    3   37 1
     8    4   13 1
     9    4    5 ar
    10    5    6 ar
    11    5    7 1
    12    6   38 1
    13    7   12 ar
    14    7    8 ar
    15    8    9 ar
    16    8   39 1
    17    9   10 ar
    18    9   40 1
    19   10   11 ar
    20   10   41 1
    21   11   12 ar
    22   11   42 1
    23   12   13 1
    24   13   14 1
    25   13   43 1
    26   14   15 1
    27   14   44 1
    28   14   45 1
    29   15   16 1
    30   16   17 2
    31   16   18 am
    32   18   19 1
    33   18   46 1
    34   19   20 1
    35   19   21 1
    36   19   33 1
    37   21   22 1
    38   21   47 1
    39   21   48 1
    40   22   27 ar
    41   22   23 ar
    42   23   24 ar
    43   23   49 1
    44   24   25 ar
    45   24   50 1
    46   25   26 ar
    47   25   28 1
    48   26   27 ar
    49   26   51 1
    50   27   52 1
    51   28   29 1
    52   28   30 1
    53   28   31 1
    54   31   32 2
    55   31   53 1
    56   31   54 1
    57   33   34 2
    58   33   55 1
@<TRIPOS>MOLECULE
ZINC13273707
   49    51     0     0     0
SMALL
USER_CHARGES
3-allyl-2-[2-[[4-(carboxymethyl)phenyl]amino]-2-oxo-ethyl]sulfanyl-4-oxo-quinazoline-7-carboxylic acid
@<TRIPOS>ATOM
      1 C1          1.1152    1.7593    0.0087 C.2       1 <0>        -0.1553
      2 C2         -0.0059    1.0817    0.0121 C.2       1 <0>        -0.1805
      3 C3         -1.3258    1.8090    0.0169 C.3       1 <0>         0.1202
      4 N1         -2.1370    1.3563   -1.1159 N.am      1 <0>        -0.5262
      5 C4         -2.9723    0.3028   -0.9645 C.2       1 <0>         0.5579
      6 O1         -3.0650   -0.2808    0.0995 O.2       1 <0>        -0.5180
      7 C5         -3.7651   -0.1115   -2.1331 C.ar      1 <0>        -0.1981
      8 C6         -4.6519   -1.1860   -2.0725 C.ar      1 <0>        -0.0634
      9 C7         -5.3687   -1.5397   -3.1794 C.ar      1 <0>        -0.0898
     10 C8         -5.2233   -0.8317   -4.3795 C.ar      1 <0>        -0.0674
     11 C9         -4.3457    0.2419   -4.4624 C.ar      1 <0>        -0.0740
     12 C10        -3.6060    0.6130   -3.3359 C.ar      1 <0>         0.1426
     13 N2         -2.7388    1.6520   -3.3706 N.2       1 <0>        -0.5158
     14 C11        -2.0481    2.0045   -2.3145 C.2       1 <0>         0.3398
     15 S1         -0.9482    3.3744   -2.4490 S.3       1 <0>         0.0657
     16 C12        -1.2234    3.8298   -4.1790 C.3       1 <0>        -0.1479
     17 C13        -0.3610    5.0149   -4.5298 C.2       1 <0>         0.5310
     18 O2          0.3679    5.5035   -3.6926 O.2       1 <0>        -0.5124
     19 N3         -0.3998    5.5317   -5.7739 N.am      1 <0>        -0.6593
     20 C14         0.3264    6.6897   -6.0734 C.ar      1 <0>         0.1142
     21 C15        -0.1811    7.6155   -6.9756 C.ar      1 <0>        -0.1360
     22 C16         0.5351    8.7606   -7.2640 C.ar      1 <0>        -0.0994
     23 C17         1.7622    8.9797   -6.6651 C.ar      1 <0>        -0.0389
     24 C18         2.2731    8.0568   -5.7710 C.ar      1 <0>        -0.0999
     25 C19         1.5588    6.9128   -5.4734 C.ar      1 <0>        -0.1125
     26 C20         2.5441   10.2271   -6.9873 C.3       1 <0>        -0.1303
     27 C21         3.4482    9.9634   -8.1637 C.2       1 <0>         0.4654
     28 O3          3.4568    8.8743   -8.6869 O.co2     1 <0>        -0.6288
     29 C22        -6.0098   -1.2307   -5.5675 C.2       1 <0>         0.4886
     30 O4         -5.8868   -0.6204   -6.6101 O.co2     1 <0>        -0.6202
     31 H1          1.0937    2.8390    0.0140 H         1 <0>         0.1048
     32 H2          2.0611    1.2381    0.0008 H         1 <0>         0.1045
     33 H3          0.0156    0.0020    0.0068 H         1 <0>         0.1137
     34 H4         -1.8527    1.5995    0.9478 H         1 <0>         0.1092
     35 H5         -1.1501    2.8814   -0.0677 H         1 <0>         0.1001
     36 H6         -4.7712   -1.7376   -1.1517 H         1 <0>         0.1323
     37 H7         -6.0547   -2.3724   -3.1290 H         1 <0>         0.1416
     38 H8         -4.2355    0.7850   -5.3894 H         1 <0>         0.1450
     39 H9         -0.9639    2.9886   -4.8218 H         1 <0>         0.1330
     40 H10        -2.2723    4.0881   -4.3243 H         1 <0>         0.1327
     41 H11        -0.9311    5.1010   -6.4617 H         1 <0>         0.4128
     42 H12        -1.1370    7.4425   -7.4475 H         1 <0>         0.1203
     43 H13         0.1385    9.4837   -7.9613 H         1 <0>         0.1201
     44 H14         3.2315    8.2309   -5.3047 H         1 <0>         0.1190
     45 H15         1.9580    6.1928   -4.7744 H         1 <0>         0.1333
     46 H16         1.8546   11.0348   -7.2328 H         1 <0>         0.0748
     47 H17         3.1451   10.5122   -6.1238 H         1 <0>         0.0749
     48 O5          4.2440   10.9384   -8.6303 O.co2     1 <0>        -0.7764
     49 O6         -6.8621   -2.2709   -5.4926 O.co2     1 <0>        -0.7470
@<TRIPOS>BOND
     1    1    2 2
     2    1   31 1
     3    1   32 1
     4    2    3 1
     5    2   33 1
     6    3    4 1
     7    3   34 1
     8    3   35 1
     9    4   14 1
    10    4    5 am
    11    5    6 2
    12    5    7 1
    13    7   12 ar
    14    7    8 ar
    15    8    9 ar
    16    8   36 1
    17    9   10 ar
    18    9   37 1
    19   10   11 ar
    20   10   29 1
    21   11   12 ar
    22   11   38 1
    23   12   13 1
    24   13   14 2
    25   14   15 1
    26   15   16 1
    27   16   17 1
    28   16   39 1
    29   16   40 1
    30   17   18 2
    31   17   19 am
    32   19   20 1
    33   19   41 1
    34   20   25 ar
    35   20   21 ar
    36   21   22 ar
    37   21   42 1
    38   22   23 ar
    39   22   43 1
    40   23   24 ar
    41   23   26 1
    42   24   25 ar
    43   24   44 1
    44   25   45 1
    45   26   27 1
    46   26   46 1
    47   26   47 1
    48   27   28 2
    49   27   48 1
    50   29   30 2
    51   29   49 1
@<TRIPOS>MOLECULE
ZINC20083148
   52    54     0     0     0
SMALL
USER_CHARGES
6-[(2S)-2-(4-bromophenyl)-4-hydroxy-3-(4-nitrobenzoyl)-5-oxo-2H-pyrrol-1-yl]hexanoic acid
@<TRIPOS>ATOM
      1 C1         -0.6922    3.6617   -1.4083 C.ar      1 <0>        -0.0853
      2 C2         -1.0146    4.5352   -2.4298 C.ar      1 <0>        -0.0903
      3 C3         -1.0123    4.0959   -3.7415 C.ar      1 <0>        -0.0968
      4 C4         -0.6822    2.7841   -4.0306 C.ar      1 <0>        -0.0912
      5 C5         -0.3548    1.9128   -3.0088 C.ar      1 <0>        -0.1117
      6 C6         -0.3572    2.3522   -1.6981 C.ar      1 <0>        -0.0539
      7 C7         -0.0007    1.4017   -0.5844 C.3       1 <0>         0.2603
      8 H1         -0.1198    0.3742   -0.9586 H         1 <0>         0.0728
      9 C8          1.4040    1.6738   -0.0990 C.2       1 <0>        -0.5114
     10 C9          1.3068    2.0130    1.2079 C.2       1 <0>         0.2772
     11 C10        -0.1141    1.9775    1.6143 C.2       1 <0>         0.5096
     12 O1         -0.5275    2.2338    2.7276 O.2       1 <0>        -0.5284
     13 N1         -0.8818    1.6204    0.5688 N.am      1 <0>        -0.6086
     14 C11        -2.3396    1.4761    0.5793 C.3       1 <0>         0.1343
     15 C12        -2.7072    0.0387    0.9529 C.3       1 <0>        -0.1352
     16 C13        -4.2297   -0.1120    0.9639 C.3       1 <0>        -0.1151
     17 C14        -4.5973   -1.5494    1.3376 C.3       1 <0>        -0.0975
     18 C15        -6.1198   -1.7001    1.3485 C.3       1 <0>        -0.1571
     19 C16        -6.4819   -3.1159    1.7166 C.2       1 <0>         0.4581
     20 O2         -5.6114   -3.9217    1.9465 O.co2     1 <0>        -0.6410
     21 O3         -7.7713   -3.4817    1.7890 O.co2     1 <0>        -0.7850
     22 O4          2.3449    2.3336    2.0138 O.3       1 <0>        -0.6464
     23 C17         2.6347    1.5871   -0.8906 C.2       1 <0>         0.4998
     24 O5          3.2974    2.5865   -1.0961 O.2       1 <0>        -0.4589
     25 C18         3.0706    0.2852   -1.4393 C.ar      1 <0>        -0.0803
     26 C19         2.3826   -0.8830   -1.1042 C.ar      1 <0>        -0.0656
     27 C20         2.7918   -2.0935   -1.6234 C.ar      1 <0>        -0.0659
     28 C21         3.8877   -2.1535   -2.4664 C.ar      1 <0>        -0.0384
     29 C22         4.5773   -1.0005   -2.7984 C.ar      1 <0>        -0.0694
     30 C23         4.1757    0.2174   -2.2905 C.ar      1 <0>        -0.0793
     31 N2          4.3248   -3.4570   -3.0149 N.pl3     1 <0>         0.0317
     32 O6          5.2892   -3.5130   -3.7567 O.2       1 <0>        -0.1713
     33 O7          3.7199   -4.4735   -2.7245 O.3       1 <0>        -0.1616
     34 Br1        -1.4597    5.2887   -5.1391 Br        1 <0>        -0.0704
     35 H2         -0.6979    4.0035   -0.3838 H         1 <0>         0.1276
     36 H3         -1.2726    5.5592   -2.2036 H         1 <0>         0.1274
     37 H4         -0.6800    2.4409   -5.0546 H         1 <0>         0.1274
     38 H5         -0.0974    0.8885   -3.2344 H         1 <0>         0.1283
     39 H6         -2.7713    2.1685    1.3170 H         1 <0>         0.0788
     40 H7         -2.7383    1.7088   -0.4191 H         1 <0>         0.0739
     41 H8         -2.2755   -0.6537    0.2152 H         1 <0>         0.0639
     42 H9         -2.3085   -0.1941    1.9513 H         1 <0>         0.0675
     43 H10        -4.6614    0.5805    1.7016 H         1 <0>         0.0580
     44 H11        -4.6284    0.1207   -0.0345 H         1 <0>         0.0567
     45 H12        -4.1656   -2.2418    0.5999 H         1 <0>         0.0591
     46 H13        -4.1987   -1.7821    2.3361 H         1 <0>         0.0597
     47 H14        -6.5515   -1.0076    2.0861 H         1 <0>         0.0611
     48 H15        -6.5185   -1.4675    0.3500 H         1 <0>         0.0607
     49 H16         1.5297   -0.8381   -0.4432 H         1 <0>         0.1612
     50 H17         2.2584   -2.9972   -1.3681 H         1 <0>         0.1564
     51 H18         5.4319   -1.0544   -3.4565 H         1 <0>         0.1517
     52 H19         4.7145    1.1165   -2.5507 H         1 <0>         0.1529
@<TRIPOS>BOND
     1    1    6 ar
     2    1    2 ar
     3    1   35 1
     4    2    3 ar
     5    2   36 1
     6    3    4 ar
     7    3   34 1
     8    4    5 ar
     9    4   37 1
    10    5    6 ar
    11    5   38 1
    12    6    7 1
    13    7    8 1
    14    7   13 1
    15    7    9 1
    16    9   10 2
    17    9   23 1
    18   10   11 1
    19   10   22 1
    20   11   12 2
    21   11   13 am
    22   13   14 1
    23   14   15 1
    24   14   39 1
    25   14   40 1
    26   15   16 1
    27   15   41 1
    28   15   42 1
    29   16   17 1
    30   16   43 1
    31   16   44 1
    32   17   18 1
    33   17   45 1
    34   17   46 1
    35   18   19 1
    36   18   47 1
    37   18   48 1
    38   19   20 2
    39   19   21 1
    40   23   24 2
    41   23   25 1
    42   25   30 ar
    43   25   26 ar
    44   26   27 ar
    45   26   49 1
    46   27   28 ar
    47   27   50 1
    48   28   29 ar
    49   28   31 1
    50   29   30 ar
    51   29   51 1
    52   30   52 1
    53   31   32 2
    54   31   33 1
@<TRIPOS>MOLECULE
ZINC13274478
   50    51     0     0     0
SMALL
USER_CHARGES

@<TRIPOS>ATOM
      1 C1         -0.0187    1.5258    0.0104 C.3       1 <0>        -0.1425
      2 C2          0.0021   -0.0041    0.0020 C.3       1 <0>         0.0449
      3 H1         -1.0205   -0.3814    0.0098 H         1 <0>         0.1012
      4 C3          0.7309   -0.5033    1.2229 C.2       1 <0>         0.5025
      5 O1          0.2279   -0.3789    2.3265 O.co2     1 <0>        -0.6861
      6 O2          1.8236   -1.0316    1.1070 O.co2     1 <0>        -0.6661
      7 N1          0.6878   -0.4765   -1.2033 N.am      1 <0>        -0.4933
      8 C4          1.9786   -0.1326   -1.4206 C.2       1 <0>         0.5602
      9 O3          2.5876    0.5658   -0.6311 O.2       1 <0>        -0.4779
     10 C5          2.6174   -0.6343   -2.6448 C.ar      1 <0>        -0.2025
     11 C6          3.9426   -0.3368   -2.9593 C.ar      1 <0>        -0.0334
     12 C7          4.4886   -0.8301   -4.1121 C.ar      1 <0>        -0.1649
     13 C8          3.7376   -1.6227   -4.9707 C.ar      1 <0>        -0.0796
     14 C9          2.4368   -1.9298   -4.6870 C.ar      1 <0>        -0.1262
     15 C10         1.8499   -1.4406   -3.5160 C.ar      1 <0>         0.1834
     16 N2          0.5700   -1.7194   -3.1972 N.2       1 <0>        -0.5645
     17 C11         0.0218   -1.2656   -2.0972 C.2       1 <0>         0.3742
     18 S1         -1.6553   -1.6869   -1.7589 S.3       1 <0>         0.0768
     19 C12        -2.1411   -2.7205   -3.1683 C.3       1 <0>        -0.1468
     20 C13        -3.5745   -3.1549   -3.0022 C.2       1 <0>         0.5284
     21 O4         -4.2062   -2.8021   -2.0289 O.2       1 <0>        -0.5291
     22 N3         -4.1544   -3.9356   -3.9353 N.am      1 <0>        -0.6878
     23 C14        -5.5479   -4.3580   -3.7738 C.3       1 <0>         0.0767
     24 H2         -6.1168   -3.5593   -3.2978 H         1 <0>         0.0870
     25 C15        -6.1501   -4.6649   -5.1465 C.3       1 <0>        -0.1043
     26 C16        -6.2099   -3.3806   -5.9758 C.3       1 <0>        -0.0979
     27 C17        -6.6950   -3.7085   -7.3894 C.3       1 <0>        -0.1430
     28 C18        -7.1788   -2.3947   -5.3201 C.3       1 <0>        -0.1476
     29 C19        -5.6016   -5.5944   -2.9139 C.2       1 <0>         0.4904
     30 O5         -6.5759   -5.8071   -2.2124 O.co2     1 <0>        -0.6967
     31 O6         -4.6709   -6.3819   -2.9196 O.co2     1 <0>        -0.6903
     32 H3          1.0039    1.9031    0.0027 H         1 <0>         0.0721
     33 H4         -0.5459    1.8868   -0.8726 H         1 <0>         0.0453
     34 H5         -0.5289    1.8773    0.9072 H         1 <0>         0.0769
     35 H6          4.5337    0.2790   -2.2976 H         1 <0>         0.1308
     36 H7          5.5149   -0.6006   -4.3578 H         1 <0>         0.1218
     37 H8          4.1884   -2.0016   -5.8760 H         1 <0>         0.1229
     38 H9          1.8649   -2.5475   -5.3636 H         1 <0>         0.1315
     39 H10        -2.0393   -2.1484   -4.0905 H         1 <0>         0.1196
     40 H11        -1.4979   -3.5993   -3.2131 H         1 <0>         0.1241
     41 H12        -3.6492   -4.2178   -4.7137 H         1 <0>         0.3933
     42 H13        -5.5298   -5.4000   -5.6592 H         1 <0>         0.0636
     43 H14        -7.1568   -5.0634   -5.0207 H         1 <0>         0.0741
     44 H15        -5.2167   -2.9344   -6.0269 H         1 <0>         0.0683
     45 H16        -7.6882   -4.1546   -7.3384 H         1 <0>         0.0516
     46 H17        -6.7376   -2.7935   -7.9803 H         1 <0>         0.0479
     47 H18        -6.0047   -4.4109   -7.8566 H         1 <0>         0.0514
     48 H19        -6.8333   -2.1611   -4.3130 H         1 <0>         0.0615
     49 H20        -7.2215   -1.4797   -5.9109 H         1 <0>         0.0460
     50 H21        -8.1720   -2.8408   -5.2690 H         1 <0>         0.0523
@<TRIPOS>BOND
     1    1    2 1
     2    1   32 1
     3    1   33 1
     4    1   34 1
     5    2    3 1
     6    2    4 1
     7    2    7 1
     8    4    5 2
     9    4    6 1
    10    7   17 1
    11    7    8 am
    12    8    9 2
    13    8   10 1
    14   10   15 ar
    15   10   11 ar
    16   11   12 ar
    17   11   35 1
    18   12   13 ar
    19   12   36 1
    20   13   14 ar
    21   13   37 1
    22   14   15 ar
    23   14   38 1
    24   15   16 1
    25   16   17 2
    26   17   18 1
    27   18   19 1
    28   19   20 1
    29   19   39 1
    30   19   40 1
    31   20   21 2
    32   20   22 am
    33   22   23 1
    34   22   41 1
    35   23   24 1
    36   23   25 1
    37   23   29 1
    38   25   26 1
    39   25   42 1
    40   25   43 1
    41   26   27 1
    42   26   28 1
    43   26   44 1
    44   27   45 1
    45   27   46 1
    46   27   47 1
    47   28   48 1
    48   28   49 1
    49   28   50 1
    50   29   30 2
    51   29   31 1
@<TRIPOS>MOLECULE
ZINC13092827
   53    55     0     0     0
SMALL
USER_CHARGES

@<TRIPOS>ATOM
      1 C1         -0.0068    1.5323    0.0160 C.3       1 <0>        -0.1410
      2 C2          0.0034    0.0024    0.0037 C.3       1 <0>        -0.1069
      3 H1         -1.0217   -0.3678    0.0119 H         1 <0>         0.1205
      4 C3          0.7304   -0.5049    1.2224 C.2       1 <0>         0.5443
      5 O1          1.9085   -0.7849    1.1530 O.2       1 <0>        -0.4953
      6 N1          0.0715   -0.6474    2.3895 N.am      1 <0>        -0.6745
      7 C4          0.7200   -1.2088    3.4950 C.ar      1 <0>         0.2154
      8 C5          0.0150   -2.0131    4.3808 C.ar      1 <0>        -0.1676
      9 C6          0.6579   -2.5657    5.4711 C.ar      1 <0>        -0.0009
     10 C7          2.0023   -2.3189    5.6811 C.ar      1 <0>        -0.7020
     11 C8          2.7070   -1.5181    4.8012 C.ar      1 <0>         0.0001
     12 C9          2.0713   -0.9676    3.7056 C.ar      1 <0>        -0.1440
     13 S1          2.8188   -3.0259    7.0733 S.o2      1 <0>         2.7127
     14 O2          3.9434   -2.2012    7.3464 O.2       1 <0>        -0.9558
     15 O3          1.8140   -3.2895    8.0428 O.2       1 <0>        -0.9571
     16 N2          3.4144   -4.4959    6.5972 N.pl3     1 <0>        -1.0130
     17 C10         2.6987   -5.7776    6.6790 C.3       1 <0>         0.1180
     18 C11         3.6519   -6.8692    6.1485 C.3       1 <0>        -0.1299
     19 C12         5.0519   -6.2243    6.3258 C.3       1 <0>        -0.1287
     20 C13         4.7476   -4.7352    6.0152 C.3       1 <0>         0.1117
     21 S2          0.8465   -0.5847   -1.4913 S.3       1 <0>         0.0224
     22 C14        -0.1919   -0.0418   -2.8072 C.ar      1 <0>         0.2531
     23 N3          0.1437   -0.3132   -4.0627 N.ar      1 <0>        -0.5766
     24 C15        -0.6431    0.0985   -5.0509 C.ar      1 <0>         0.4216
     25 O4         -0.3261   -0.1644   -6.3419 O.3       1 <0>        -0.6574
     26 C16        -1.8028    0.8068   -4.7330 C.ar      1 <0>        -0.0366
     27 N4         -2.0843    1.0467   -3.4661 N.ar      1 <0>        -0.2060
     28 N5         -1.3038    0.6292   -2.5317 N.ar      1 <0>        -0.4072
     29 C17        -2.7226    1.2924   -5.8235 C.3       1 <0>        -0.0109
     30 C18        -3.7707    0.2187   -6.1224 C.3       1 <0>        -0.1652
     31 C19        -4.6905    0.7043   -7.2129 C.2       1 <0>         0.4976
     32 O5         -4.5232    1.8070   -7.7054 O.co2     1 <0>        -0.7012
     33 O6         -5.6019   -0.0055   -7.6027 O.co2     1 <0>        -0.7187
     34 H2          1.0184    1.9026    0.0079 H         1 <0>         0.0651
     35 H3         -0.5326    1.8993   -0.8654 H         1 <0>         0.1021
     36 H4         -0.5134    1.8851    0.9144 H         1 <0>         0.0588
     37 H5         -0.8522   -0.3607    2.4630 H         1 <0>         0.4193
     38 H6         -1.0350   -2.2059    4.2175 H         1 <0>         0.1384
     39 H7          0.1101   -3.1910    6.1605 H         1 <0>         0.1414
     40 H8          3.7567   -1.3270    4.9682 H         1 <0>         0.1414
     41 H9          2.6234   -0.3464    3.0159 H         1 <0>         0.1523
     42 H10         2.4334   -5.9886    7.7149 H         1 <0>         0.0730
     43 H11         1.7995   -5.7399    6.0641 H         1 <0>         0.0675
     44 H12         3.5675   -7.7778    6.7447 H         1 <0>         0.0811
     45 H13         3.4533   -7.0768    5.0970 H         1 <0>         0.0782
     46 H14         5.4125   -6.3480    7.3470 H         1 <0>         0.0762
     47 H15         5.7641   -6.6334    5.6093 H         1 <0>         0.0839
     48 H16         4.7274   -4.5663    4.9385 H         1 <0>         0.0713
     49 H17         5.4889   -4.0904    6.4873 H         1 <0>         0.0846
     50 H18        -3.2206    2.2060   -5.4987 H         1 <0>         0.0619
     51 H19        -2.1430    1.4951   -6.7241 H         1 <0>         0.0772
     52 H20        -3.2727   -0.6948   -6.4472 H         1 <0>         0.0560
     53 H21        -4.3503    0.0160   -5.2218 H         1 <0>         0.0496
@<TRIPOS>BOND
     1    1    2 1
     2    1   34 1
     3    1   35 1
     4    1   36 1
     5    2    3 1
     6    2    4 1
     7    2   21 1
     8    4    5 2
     9    4    6 am
    10    6    7 1
    11    6   37 1
    12    7   12 ar
    13    7    8 ar
    14    8    9 ar
    15    8   38 1
    16    9   10 ar
    17    9   39 1
    18   10   11 ar
    19   10   13 1
    20   11   12 ar
    21   11   40 1
    22   12   41 1
    23   13   14 2
    24   13   15 2
    25   13   16 1
    26   16   20 1
    27   16   17 1
    28   17   18 1
    29   17   42 1
    30   17   43 1
    31   18   19 1
    32   18   44 1
    33   18   45 1
    34   19   20 1
    35   19   46 1
    36   19   47 1
    37   20   48 1
    38   20   49 1
    39   21   22 1
    40   22   23 ar
    41   22   28 ar
    42   23   24 ar
    43   24   25 1
    44   24   26 ar
    45   26   27 ar
    46   26   29 1
    47   27   28 ar
    48   29   30 1
    49   29   50 1
    50   29   51 1
    51   30   31 1
    52   30   52 1
    53   30   53 1
    54   31   32 2
    55   31   33 1
@<TRIPOS>MOLECULE
ZINC04752673
   50    51     0     0     0
SMALL
USER_CHARGES
2-[4-chloro-6-(4-hexanoyl-3-methyl-piperazin-1-yl)-pyrimidin-2-yl]sulfanylacetic acid
@<TRIPOS>ATOM
      1 C1         11.3656    3.3180   -3.3452 C.3       1 <0>        -0.1536
      2 C2         10.6598    3.7134   -2.0465 C.3       1 <0>        -0.1254
      3 C3          9.1688    3.9216   -2.3193 C.3       1 <0>        -0.1208
      4 C4          8.4631    4.3170   -1.0207 C.3       1 <0>        -0.1039
      5 C5          6.9721    4.5251   -1.2934 C.3       1 <0>        -0.1433
      6 C6          6.2769    4.9146   -0.0143 C.2       1 <0>         0.5160
      7 O1          6.9116    5.0157    1.0142 O.2       1 <0>        -0.5305
      8 N1          4.9500    5.1505   -0.0133 N.am      1 <0>        -0.6155
      9 C7          4.1826    5.1524   -1.2681 C.3       1 <0>         0.1140
     10 C8          2.9713    4.2291   -1.0993 C.3       1 <0>         0.0466
     11 N2          2.2138    4.6334    0.0927 N.pl3     1 <0>        -0.4916
     12 C9          3.0175    4.4788    1.3126 C.3       1 <0>         0.0551
     13 C10         4.2308    5.4124    1.2426 C.3       1 <0>         0.1512
     14 H1          3.8993    6.4505    1.2651 H         1 <0>         0.0860
     15 C11         5.1562    5.1424    2.4307 C.3       1 <0>        -0.1383
     16 C12         1.0253    3.9279    0.1885 C.ar      1 <0>         0.3831
     17 C13         1.0298    2.5320    0.2043 C.ar      1 <0>        -0.2710
     18 C14        -0.1805    1.8695    0.3007 C.ar      1 <0>         0.2519
     19 N3         -1.3017    2.5742    0.3693 N.ar      1 <0>        -0.5258
     20 C15        -1.2746    3.8991    0.3576 C.ar      1 <0>         0.3150
     21 N4         -0.1357    4.5706    0.2662 N.ar      1 <0>        -0.4832
     22 S1         -2.7914    4.7902    0.4586 S.3       1 <0>         0.0940
     23 C16        -3.9597    3.4115    0.5602 C.3       1 <0>        -0.1555
     24 C17        -5.3641    3.9493    0.6571 C.2       1 <0>         0.4805
     25 O2         -5.5555    5.1423    0.6573 O.co2     1 <0>        -0.6196
     26 Cl1        -0.2316    0.1344    0.3246 Cl        1 <0>        -0.0170
     27 H2         11.2383    4.1098   -4.0835 H         1 <0>         0.0532
     28 H3         12.4278    3.1697   -3.1508 H         1 <0>         0.0528
     29 H4         10.9333    2.3928   -3.7264 H         1 <0>         0.0532
     30 H5         11.0921    4.6386   -1.6653 H         1 <0>         0.0616
     31 H6         10.7871    2.9217   -1.3082 H         1 <0>         0.0614
     32 H7          8.7366    2.9964   -2.7006 H         1 <0>         0.0616
     33 H8          9.0416    4.7133   -3.0576 H         1 <0>         0.0620
     34 H9          8.8953    5.2421   -0.6394 H         1 <0>         0.0695
     35 H10         8.5903    3.5252   -0.2824 H         1 <0>         0.0688
     36 H11         6.5398    3.5999   -1.6747 H         1 <0>         0.0917
     37 H12         6.8448    5.3168   -2.0317 H         1 <0>         0.0925
     38 H13         4.8101    4.7882   -2.0815 H         1 <0>         0.0964
     39 H14         3.8436    6.1646   -1.4884 H         1 <0>         0.0856
     40 H15         3.3117    3.2002   -0.9823 H         1 <0>         0.0516
     41 H16         2.3319    4.3029   -1.9789 H         1 <0>         0.0954
     42 H17         2.4118    4.7342    2.1820 H         1 <0>         0.0941
     43 H18         3.3573    3.4465    1.3960 H         1 <0>         0.0508
     44 H19         5.9481    5.8910    2.4519 H         1 <0>         0.0837
     45 H20         4.5831    5.1935    3.3566 H         1 <0>         0.0497
     46 H21         5.5965    4.1504    2.3303 H         1 <0>         0.0634
     47 H22         1.9572    1.9820    0.1429 H         1 <0>         0.1481
     48 H23        -3.8687    2.7916   -0.3317 H         1 <0>         0.0999
     49 H24        -3.7384    2.8121    1.4434 H         1 <0>         0.0997
     50 O3         -6.4024    3.1030    0.7430 O.co2     1 <0>        -0.7452
@<TRIPOS>BOND
     1    1    2 1
     2    1   27 1
     3    1   28 1
     4    1   29 1
     5    2    3 1
     6    2   30 1
     7    2   31 1
     8    3    4 1
     9    3   32 1
    10    3   33 1
    11    4    5 1
    12    4   34 1
    13    4   35 1
    14    5    6 1
    15    5   36 1
    16    5   37 1
    17    6    7 2
    18    6    8 am
    19    8   13 1
    20    8    9 1
    21    9   10 1
    22    9   38 1
    23    9   39 1
    24   10   11 1
    25   10   40 1
    26   10   41 1
    27   11   12 1
    28   11   16 1
    29   12   13 1
    30   12   42 1
    31   12   43 1
    32   13   14 1
    33   13   15 1
    34   15   44 1
    35   15   45 1
    36   15   46 1
    37   16   21 ar
    38   16   17 ar
    39   17   18 ar
    40   17   47 1
    41   18   19 ar
    42   18   26 1
    43   19   20 ar
    44   20   21 ar
    45   20   22 1
    46   22   23 1
    47   23   24 1
    48   23   48 1
    49   23   49 1
    50   24   25 2
    51   24   50 1
@<TRIPOS>MOLECULE
ZINC26469382
   52    53     0     0     0
SMALL
USER_CHARGES
2-[[4-ethyl-5-[3-(4-isopropyl-3-methyl-phenoxy)propyl]-1,2,4-triazol-3-yl]sulfanyl]acetic acid
@<TRIPOS>ATOM
      1 C1         -1.9884   -0.2118   -0.8640 C.3       1 <0>        -0.1722
      2 C2         -1.4353   -0.5623    0.5188 C.3       1 <0>         0.0989
      3 N1         -0.1138   -1.1780    0.3745 N.pl3     1 <0>        -0.4633
      4 C3          0.1655   -2.5085    0.2261 C.2       1 <0>         0.1646
      5 N2          1.4603   -2.6255    0.1382 N.2       1 <0>        -0.2824
      6 N3          2.0141   -1.4682    0.2148 N.2       1 <0>        -0.3004
      7 C4          1.0944   -0.5422    0.3569 C.2       1 <0>         0.1597
      8 S1          1.3678    1.1921    0.5048 S.3       1 <0>         0.0405
      9 C5          3.1743    1.2354    0.4009 C.3       1 <0>        -0.1412
     10 C6          3.6496    2.6616    0.5075 C.2       1 <0>         0.4820
     11 O1          2.8491    3.5568    0.6400 O.co2     1 <0>        -0.6216
     12 O2          4.9622    2.9373    0.4551 O.co2     1 <0>        -0.7450
     13 C7         -0.8378   -3.6319    0.1793 C.3       1 <0>        -0.0224
     14 C8         -1.0928   -4.1473    1.5972 C.3       1 <0>        -0.1165
     15 C9         -2.1115   -5.2879    1.5497 C.3       1 <0>         0.0614
     16 O3         -2.3496   -5.7692    2.8740 O.3       1 <0>        -0.3133
     17 C10        -3.2362   -6.7903    3.0092 C.ar      1 <0>         0.1328
     18 C11        -3.8685   -7.3143    1.8907 C.ar      1 <0>        -0.2121
     19 C12        -4.7645   -8.3562    2.0301 C.ar      1 <0>        -0.0716
     20 C13        -5.0410   -8.8688    3.2844 C.ar      1 <0>        -0.1179
     21 C14        -4.4167   -8.3447    4.4009 C.ar      1 <0>        -0.0451
     22 C15        -3.5149   -7.3065    4.2661 C.ar      1 <0>        -0.1517
     23 C16        -4.7195   -8.9063    5.7661 C.3       1 <0>        -0.1174
     24 C17        -6.0241  -10.0011    3.4343 C.3       1 <0>        -0.0565
     25 C18        -7.3498   -9.6161    2.7746 C.3       1 <0>        -0.1458
     26 C19        -5.4642  -11.2553    2.7601 C.3       1 <0>        -0.1446
     27 H1         -2.9806    0.2505   -0.7556 H         1 <0>         0.0809
     28 H2         -2.0744   -1.1275   -1.4674 H         1 <0>         0.0611
     29 H3         -1.3078    0.4936   -1.3631 H         1 <0>         0.0727
     30 H4         -1.3493    0.3534    1.1222 H         1 <0>         0.1027
     31 H5         -2.1159   -1.2677    1.0180 H         1 <0>         0.0956
     32 H6          3.6031    0.6436    1.2230 H         1 <0>         0.0997
     33 H7          3.4964    0.8126   -0.5621 H         1 <0>         0.0998
     34 H8         -1.7804   -3.2639   -0.2522 H         1 <0>         0.0841
     35 H9         -0.4443   -4.4493   -0.4428 H         1 <0>         0.1024
     36 H10        -0.1502   -4.5152    2.0286 H         1 <0>         0.0861
     37 H11        -1.4863   -3.3299    2.2193 H         1 <0>         0.0749
     38 H12        -3.0541   -4.9199    1.1182 H         1 <0>         0.0643
     39 H13        -1.7180   -6.1053    0.9276 H         1 <0>         0.0675
     40 H14        -3.6568   -6.9109    0.9115 H         1 <0>         0.1271
     41 H15        -5.2533   -8.7676    1.1593 H         1 <0>         0.1226
     42 H16        -3.0277   -6.8971    5.1387 H         1 <0>         0.1296
     43 H17        -4.1323   -8.3661    6.5233 H         1 <0>         0.0674
     44 H18        -4.4554   -9.9739    5.7902 H         1 <0>         0.0724
     45 H19        -5.7918   -8.7889    5.9813 H         1 <0>         0.0725
     46 H20        -6.1811  -10.1912    4.5063 H         1 <0>         0.0810
     47 H21        -8.0674  -10.4426    2.8840 H         1 <0>         0.0568
     48 H22        -7.1828   -9.4145    1.7062 H         1 <0>         0.0561
     49 H23        -7.7523   -8.7144    3.2593 H         1 <0>         0.0556
     50 H24        -6.1818  -12.0818    2.8695 H         1 <0>         0.0568
     51 H25        -4.5111  -11.5320    3.2344 H         1 <0>         0.0555
     52 H26        -5.2972  -11.0537    1.6917 H         1 <0>         0.0558
@<TRIPOS>BOND
     1    1    2 1
     2    1   27 1
     3    1   28 1
     4    1   29 1
     5    2    3 1
     6    2   30 1
     7    2   31 1
     8    3    7 1
     9    3    4 1
    10    4    5 2
    11    4   13 1
    12    5    6 1
    13    6    7 2
    14    7    8 1
    15    8    9 1
    16    9   10 1
    17    9   32 1
    18    9   33 1
    19   10   11 2
    20   10   12 1
    21   13   14 1
    22   13   34 1
    23   13   35 1
    24   14   15 1
    25   14   36 1
    26   14   37 1
    27   15   16 1
    28   15   38 1
    29   15   39 1
    30   16   17 1
    31   17   22 ar
    32   17   18 ar
    33   18   19 ar
    34   18   40 1
    35   19   20 ar
    36   19   41 1
    37   20   21 ar
    38   20   24 1
    39   21   22 ar
    40   21   23 1
    41   22   42 1
    42   23   43 1
    43   23   44 1
    44   23   45 1
    45   24   25 1
    46   24   26 1
    47   24   46 1
    48   25   47 1
    49   25   48 1
    50   25   49 1
    51   26   50 1
    52   26   51 1
    53   26   52 1
@<TRIPOS>MOLECULE
ZINC39827190
   50    52     0     0     0
SMALL
USER_CHARGES

@<TRIPOS>ATOM
      1 C1         -3.3234    1.7343   -5.2491 C.3       1 <0>        -0.1499
      2 C2         -3.3536    0.2079   -5.3507 C.3       1 <0>        -0.1232
      3 C3         -4.0268   -0.3729   -4.1056 C.3       1 <0>         0.0570
      4 O1         -4.0550   -1.7985   -4.2006 O.3       1 <0>        -0.3165
      5 C4         -4.6230   -2.4735   -3.1695 C.ar      1 <0>         0.1408
      6 C5         -5.1488   -1.7740   -2.0889 C.ar      1 <0>        -0.2249
      7 C6         -5.7258   -2.4549   -1.0408 C.ar      1 <0>        -0.0335
      8 C7         -5.7833   -3.8518   -1.0643 C.ar      1 <0>        -0.1730
      9 C8         -5.2538   -4.5512   -2.1531 C.ar      1 <0>        -0.0253
     10 C9         -4.6828   -3.8624   -3.1993 C.ar      1 <0>        -0.1671
     11 C10        -6.4007   -4.5861    0.0575 C.2       1 <0>         0.5089
     12 O2         -6.7962   -3.9810    1.0366 O.2       1 <0>        -0.4763
     13 C11        -6.5376   -6.0446   -0.0077 C.2       1 <0>        -0.5035
     14 C12        -7.6935   -6.7441   -0.0849 C.2       1 <0>         0.2657
     15 C13        -7.3847   -8.1887   -0.1308 C.2       1 <0>         0.5134
     16 O3         -8.2111   -9.0765   -0.2019 O.2       1 <0>        -0.5345
     17 N1         -6.0532   -8.3754   -0.0823 N.am      1 <0>        -0.6080
     18 C14        -5.4150   -7.0559   -0.0083 C.3       1 <0>         0.3067
     19 H1         -4.7703   -6.8997   -0.8731 H         1 <0>         0.0945
     20 C15        -4.6142   -6.9418    1.2633 C.2       1 <0>        -0.1002
     21 C16        -3.4562   -6.2734    1.4856 C.2       1 <0>        -0.1791
     22 C17        -2.8942   -6.3076    2.7480 C.2       1 <0>        -0.1447
     23 C18        -3.5178   -7.0086    3.7263 C.2       1 <0>        -0.2054
     24 S1         -4.9488   -7.6453    2.8696 S.3       1 <0>         0.0440
     25 C19        -5.3623   -9.6671   -0.1059 C.3       1 <0>         0.1367
     26 C20        -5.0606  -10.0577   -1.5541 C.3       1 <0>         0.0439
     27 O4         -4.1362   -9.1243   -2.1165 O.3       1 <0>        -0.3825
     28 C21        -3.7857   -9.3997   -3.4742 C.3       1 <0>         0.0323
     29 O5         -8.9347   -6.2064   -0.1153 O.3       1 <0>        -0.6524
     30 H2         -2.8438    2.1481   -6.1361 H         1 <0>         0.0628
     31 H3         -4.3427    2.1138   -5.1766 H         1 <0>         0.0576
     32 H4         -2.7624    2.0283   -4.3620 H         1 <0>         0.0573
     33 H5         -3.9147   -0.0861   -6.2378 H         1 <0>         0.0728
     34 H6         -2.3344   -0.1716   -5.4232 H         1 <0>         0.0725
     35 H7         -3.4658   -0.0789   -3.2186 H         1 <0>         0.0617
     36 H8         -5.0461    0.0066   -4.0332 H         1 <0>         0.0621
     37 H9         -5.1040   -0.6951   -2.0715 H         1 <0>         0.1257
     38 H10        -6.1333   -1.9110   -0.2015 H         1 <0>         0.1316
     39 H11        -5.2962   -5.6302   -2.1751 H         1 <0>         0.1420
     40 H12        -4.2773   -4.4016   -4.0426 H         1 <0>         0.1302
     41 H13        -2.9794   -5.7226    0.6882 H         1 <0>         0.1280
     42 H14        -1.9718   -5.7840    2.9517 H         1 <0>         0.1243
     43 H15        -3.2266   -7.1435    4.7576 H         1 <0>         0.1769
     44 H16        -4.4289   -9.5901    0.4517 H         1 <0>         0.0844
     45 H17        -5.9967  -10.4268    0.3507 H         1 <0>         0.0954
     46 H18        -4.6271  -11.0576   -1.5779 H         1 <0>         0.0560
     47 H19        -5.9841  -10.0482   -2.1329 H         1 <0>         0.0552
     48 H20        -3.0812   -8.6467   -3.8275 H         1 <0>         0.0839
     49 H21        -3.3258  -10.3858   -3.5379 H         1 <0>         0.0361
     50 H22        -4.6828   -9.3765   -4.0929 H         1 <0>         0.0396
@<TRIPOS>BOND
     1    1    2 1
     2    1   30 1
     3    1   31 1
     4    1   32 1
     5    2    3 1
     6    2   33 1
     7    2   34 1
     8    3    4 1
     9    3   35 1
    10    3   36 1
    11    4    5 1
    12    5   10 ar
    13    5    6 ar
    14    6    7 ar
    15    6   37 1
    16    7    8 ar
    17    7   38 1
    18    8    9 ar
    19    8   11 1
    20    9   10 ar
    21    9   39 1
    22   10   40 1
    23   11   12 2
    24   11   13 1
    25   13   18 1
    26   13   14 2
    27   14   15 1
    28   14   29 1
    29   15   16 2
    30   15   17 am
    31   17   18 1
    32   17   25 1
    33   18   19 1
    34   18   20 1
    35   20   24 1
    36   20   21 2
    37   21   22 1
    38   21   41 1
    39   22   23 2
    40   22   42 1
    41   23   24 1
    42   23   43 1
    43   25   26 1
    44   25   44 1
    45   25   45 1
    46   26   27 1
    47   26   46 1
    48   26   47 1
    49   27   28 1
    50   28   48 1
    51   28   49 1
    52   28   50 1
@<TRIPOS>MOLECULE
ZINC41532516
   48    50     0     0     0
SMALL
USER_CHARGES

@<TRIPOS>ATOM
      1 C1         -0.0187    1.5258    0.0104 C.3       1 <0>        -0.1683
      2 C2          0.0021   -0.0041    0.0020 C.3       1 <0>         0.1313
      3 N1          0.6878   -0.4765   -1.2033 N.am      1 <0>        -0.6085
      4 C3          0.0601   -0.7604   -2.4994 C.3       1 <0>         0.2495
      5 H1         -0.4055    0.1417   -2.8961 H         1 <0>         0.0736
      6 C4          1.1731   -1.2163   -3.4140 C.2       1 <0>        -0.4782
      7 C5          2.3129   -1.1862   -2.6865 C.2       1 <0>         0.2777
      8 C6          2.0055   -0.7216   -1.3203 C.2       1 <0>         0.5085
      9 O1          2.8220   -0.5830   -0.4309 O.2       1 <0>        -0.5340
     10 O2          3.5429   -1.5247   -3.1416 O.3       1 <0>        -0.6081
     11 C7          1.0423   -1.6153   -4.8210 C.2       1 <0>         0.4371
     12 O3          2.0272   -1.9648   -5.4498 O.2       1 <0>        -0.4955
     13 C8         -0.2255   -1.5946   -5.4470 C.2       1 <0>        -0.1655
     14 C9         -0.3466   -1.9641   -6.7499 C.2       1 <0>        -0.0608
     15 C10        -1.6137   -1.9433   -7.3755 C.2       1 <0>         0.0240
     16 C11        -1.8819   -2.2965   -8.6846 C.2       1 <0>        -0.1952
     17 C12        -3.2607   -2.1238   -8.8695 C.2       1 <0>        -0.2171
     18 C13        -3.7700   -1.6828   -7.6964 C.2       1 <0>        -0.0367
     19 O4         -2.7793   -1.5807   -6.7999 O.3       1 <0>        -0.1582
     20 C14        -0.9688   -1.8512   -2.3492 C.ar      1 <0>        -0.0288
     21 C15        -0.7145   -2.9321   -1.5250 C.ar      1 <0>        -0.1317
     22 C16        -1.6564   -3.9343   -1.3851 C.ar      1 <0>        -0.0809
     23 C17        -2.8544   -3.8585   -2.0692 C.ar      1 <0>        -0.2189
     24 C18        -3.1119   -2.7753   -2.8966 C.ar      1 <0>         0.1286
     25 C19        -2.1674   -1.7677   -3.0305 C.ar      1 <0>        -0.1461
     26 O5         -4.2895   -2.6984   -3.5705 O.3       1 <0>        -0.3092
     27 C20        -5.2170   -3.7686   -3.3802 C.3       1 <0>         0.0871
     28 C21        -6.4550   -3.5124   -4.2004 C.2       1 <0>        -0.1511
     29 C22        -6.9847   -4.4802   -4.9067 C.2       1 <0>        -0.1754
     30 H2          1.0039    1.9031    0.0027 H         1 <0>         0.0586
     31 H3         -0.5459    1.8868   -0.8726 H         1 <0>         0.0571
     32 H4         -0.5289    1.8773    0.9072 H         1 <0>         0.0618
     33 H5          0.5293   -0.3651    0.8851 H         1 <0>         0.0767
     34 H6         -1.0205   -0.3814    0.0098 H         1 <0>         0.0747
     35 H7         -1.0977   -1.2852   -4.8902 H         1 <0>         0.1287
     36 H8          0.5255   -2.2735   -7.3068 H         1 <0>         0.1533
     37 H9         -1.1692   -2.6384   -9.4205 H         1 <0>         0.1500
     38 H10        -3.8132   -2.3080   -9.7790 H         1 <0>         0.1460
     39 H11        -4.8090   -1.4535   -7.5111 H         1 <0>         0.1981
     40 H12         0.2216   -2.9936   -0.9899 H         1 <0>         0.1192
     41 H13        -1.4554   -4.7775   -0.7408 H         1 <0>         0.1199
     42 H14        -3.5896   -4.6420   -1.9602 H         1 <0>         0.1202
     43 H15        -2.3675   -0.9209   -3.6704 H         1 <0>         0.1301
     44 H16        -4.7596   -4.7063   -3.6959 H         1 <0>         0.0646
     45 H17        -5.4865   -3.8327   -2.3259 H         1 <0>         0.0688
     46 H18        -6.9054   -2.5308   -4.2061 H         1 <0>         0.1187
     47 H19        -7.8719   -4.2966   -5.4945 H         1 <0>         0.1061
     48 H20        -6.5343   -5.4618   -4.9010 H         1 <0>         0.0985
@<TRIPOS>BOND
     1    1    2 1
     2    1   30 1
     3    1   31 1
     4    1   32 1
     5    2    3 1
     6    2   33 1
     7    2   34 1
     8    3    8 am
     9    3    4 1
    10    4    5 1
    11    4    6 1
    12    4   20 1
    13    6    7 2
    14    6   11 1
    15    7    8 1
    16    7   10 1
    17    8    9 2
    18   11   12 2
    19   11   13 1
    20   13   14 2
    21   13   35 1
    22   14   15 1
    23   14   36 1
    24   15   19 1
    25   15   16 2
    26   16   17 1
    27   16   37 1
    28   17   18 2
    29   17   38 1
    30   18   19 1
    31   18   39 1
    32   20   25 ar
    33   20   21 ar
    34   21   22 ar
    35   21   40 1
    36   22   23 ar
    37   22   41 1
    38   23   24 ar
    39   23   42 1
    40   24   25 ar
    41   24   26 1
    42   25   43 1
    43   26   27 1
    44   27   28 1
    45   27   44 1
    46   27   45 1
    47   28   29 2
    48   28   46 1
    49   29   47 1
    50   29   48 1
@<TRIPOS>MOLECULE
ZINC58611754
   45    46     0     0     0
SMALL
USER_CHARGES

@<TRIPOS>ATOM
      1 C1         -0.0187    1.5258    0.0104 C.3       1 <0>        -0.1475
      2 C2          0.0021   -0.0041    0.0020 C.3       1 <0>        -0.1221
      3 C3         -1.4333   -0.5336    0.0129 C.3       1 <0>         0.0542
      4 O1         -1.4139   -1.9625    0.0050 O.3       1 <0>        -0.2860
      5 C4         -2.6173   -2.5964    0.0131 C.ar      1 <0>         0.1025
      6 C5         -3.7900   -1.8596    0.0225 C.ar      1 <0>        -0.1768
      7 C6         -5.0127   -2.5054    0.0313 C.ar      1 <0>        -0.1361
      8 C7         -5.0692   -3.8868    0.0301 C.ar      1 <0>        -0.1581
      9 C8         -3.9035   -4.6294    0.0203 C.ar      1 <0>        -0.1991
     10 C9         -2.6732   -3.9884    0.0062 C.ar      1 <0>         0.2612
     11 N1         -1.4914   -4.7382   -0.0097 N.2       1 <0>        -1.0649
     12 S1         -1.5606   -6.3927   -0.0179 S.o2      1 <0>         2.5892
     13 O2         -2.1154   -6.7822    1.2310 O.2       1 <0>        -1.0198
     14 O3         -2.1403   -6.7688   -1.2596 O.2       1 <0>        -1.0196
     15 C10         0.0994   -6.9834   -0.0376 C.ar      1 <0>        -0.5605
     16 C11         0.7404   -7.2033   -1.2424 C.ar      1 <0>        -0.0439
     17 C12         2.0427   -7.6667   -1.2579 C.ar      1 <0>        -0.0500
     18 C13         2.7040   -7.9098   -0.0686 C.ar      1 <0>        -0.6284
     19 C14         2.0633   -7.6890    1.1362 C.ar      1 <0>        -0.0500
     20 C15         0.7624   -7.2215    1.1517 C.ar      1 <0>        -0.0440
     21 S2          4.3636   -8.5015   -0.0884 S.o2      1 <0>         2.5003
     22 O4          4.5132   -9.2024    1.1386 O.2       1 <0>        -0.9381
     23 O5          4.4919   -9.1798   -1.3305 O.2       1 <0>        -0.9381
     24 C16         5.3916   -7.0069   -0.0836 C.3       1 <0>        -0.6492
     25 C17        -6.4049   -4.5845    0.0402 C.3       1 <0>         0.5073
     26 F1         -7.4289   -3.6313    0.0496 F         1 <0>        -0.1853
     27 F2         -6.5221   -5.3837   -1.1021 F         1 <0>        -0.1811
     28 F3         -6.5036   -5.3863    1.1824 F         1 <0>        -0.1811
     29 H1          1.0039    1.9031    0.0027 H         1 <0>         0.0589
     30 H2         -0.5459    1.8868   -0.8726 H         1 <0>         0.0550
     31 H3         -0.5289    1.8773    0.9072 H         1 <0>         0.0550
     32 H4          0.5123   -0.3556   -0.8948 H         1 <0>         0.0714
     33 H5          0.5293   -0.3651    0.8851 H         1 <0>         0.0714
     34 H6         -1.9435   -0.1821    0.9097 H         1 <0>         0.0532
     35 H7         -1.9605   -0.1726   -0.8702 H         1 <0>         0.0532
     36 H8         -3.7495   -0.7803    0.0234 H         1 <0>         0.1242
     37 H9         -5.9261   -1.9291    0.0393 H         1 <0>         0.1228
     38 H10        -3.9504   -5.7084    0.0198 H         1 <0>         0.1136
     39 H11         0.2238   -7.0133   -2.1716 H         1 <0>         0.1477
     40 H12         2.5433   -7.8391   -2.1992 H         1 <0>         0.1464
     41 H13         2.5798   -7.8793    2.0653 H         1 <0>         0.1464
     42 H14         0.2631   -7.0455    2.0930 H         1 <0>         0.1477
     43 H15         5.1818   -6.4246    0.8136 H         1 <0>         0.1333
     44 H16         6.4441   -7.2899   -0.0953 H         1 <0>         0.1318
     45 H17         5.1664   -6.4083   -0.9662 H         1 <0>         0.1333
@<TRIPOS>BOND
     1    1    2 1
     2    1   29 1
     3    1   30 1
     4    1   31 1
     5    2    3 1
     6    2   32 1
     7    2   33 1
     8    3    4 1
     9    3   34 1
    10    3   35 1
    11    4    5 1
    12    5   10 ar
    13    5    6 ar
    14    6    7 ar
    15    6   36 1
    16    7    8 ar
    17    7   37 1
    18    8    9 ar
    19    8   25 1
    20    9   10 ar
    21    9   38 1
    22   10   11 1
    23   11   12 1
    24   12   13 2
    25   12   14 2
    26   12   15 1
    27   15   20 ar
    28   15   16 ar
    29   16   17 ar
    30   16   39 1
    31   17   18 ar
    32   17   40 1
    33   18   19 ar
    34   18   21 1
    35   19   20 ar
    36   19   41 1
    37   20   42 1
    38   21   22 2
    39   21   23 2
    40   21   24 1
    41   24   43 1
    42   24   44 1
    43   24   45 1
    44   25   26 1
    45   25   27 1
    46   25   28 1
@<TRIPOS>MOLECULE
ZINC01123573
   47    49     0     0     0
SMALL
USER_CHARGES
4-(4-acetylaminophenyl)-N-(2-chlorophenyl)-6-methyl-2-thioxo-3,4-dihydro-1H-pyrimidine-5-carboxamide
@<TRIPOS>ATOM
      1 C1          5.2265   -4.1920   -0.2337 C.3       1 <0>        -0.1369
      2 C2          3.9065   -4.9153   -0.1582 C.2       1 <0>         0.1775
      3 C3          2.7581   -4.2073   -0.2029 C.2       1 <0>        -0.2530
      4 C4          1.4535   -4.9732   -0.1171 C.3       1 <0>         0.2274
      5 H1          0.9008   -4.5999    0.7450 H         1 <0>         0.1049
      6 N1          1.5464   -6.4385   -0.0030 N.pl3     1 <0>        -0.6440
      7 C5          2.7698   -7.0030    0.0293 C.2       1 <0>         0.5590
      8 S1          2.8932   -8.7047    0.1695 S.2       1 <0>        -0.5968
      9 N2          3.8918   -6.2761   -0.0451 N.pl3     1 <0>        -0.5995
     10 C6          0.6478   -4.6583   -1.3511 C.ar      1 <0>        -0.1408
     11 C7          0.9347   -5.2965   -2.5438 C.ar      1 <0>        -0.0757
     12 C8          0.1950   -5.0136   -3.6754 C.ar      1 <0>        -0.1444
     13 C9         -0.8308   -4.0793   -3.6170 C.ar      1 <0>         0.1610
     14 C10        -1.1129   -3.4363   -2.4189 C.ar      1 <0>        -0.1180
     15 C11        -0.3729   -3.7275   -1.2896 C.ar      1 <0>        -0.0757
     16 N3         -1.5782   -3.7862   -4.7630 N.am      1 <0>        -0.6762
     17 C12        -2.0843   -2.5496   -4.9394 C.2       1 <0>         0.5104
     18 O1         -1.8324   -1.6717   -4.1413 O.2       1 <0>        -0.5198
     19 C13        -2.9632   -2.2577   -6.1282 C.3       1 <0>        -0.1728
     20 C14         2.7722   -2.7960   -0.3202 C.2       1 <0>         0.5998
     21 O2          2.5608   -2.1016    0.6575 O.2       1 <0>        -0.4999
     22 N4          3.0195   -2.2214   -1.5140 N.am      1 <0>        -0.6558
     23 C15         3.0944   -0.8283   -1.6177 C.ar      1 <0>         0.1570
     24 C16         2.4414   -0.0254   -0.6918 C.ar      1 <0>        -0.1219
     25 C17         2.5177    1.3497   -0.7966 C.ar      1 <0>        -0.0922
     26 C18         3.2432    1.9278   -1.8222 C.ar      1 <0>        -0.1238
     27 C19         3.8948    1.1321   -2.7463 C.ar      1 <0>        -0.0894
     28 C20         3.8228   -0.2447   -2.6474 C.ar      1 <0>        -0.0688
     29 Cl1         4.6406   -1.2435   -3.8082 Cl        1 <0>        -0.0679
     30 H2          5.5148   -3.8570    0.7627 H         1 <0>         0.1015
     31 H3          5.9883   -4.8663   -0.6249 H         1 <0>         0.0908
     32 H4          5.1310   -3.3297   -0.8935 H         1 <0>         0.0934
     33 H5          0.7462   -6.9840    0.0519 H         1 <0>         0.4484
     34 H6          4.7420   -6.7423   -0.0167 H         1 <0>         0.4421
     35 H7          1.7352   -6.0200   -2.5896 H         1 <0>         0.1207
     36 H8          0.4168   -5.5154   -4.6056 H         1 <0>         0.1296
     37 H9         -1.9102   -2.7094   -2.3702 H         1 <0>         0.1413
     38 H10        -0.5916   -3.2274   -0.3577 H         1 <0>         0.1296
     39 H11        -1.7321   -4.4730   -5.4304 H         1 <0>         0.4138
     40 H12        -4.0039   -2.4483   -5.8662 H         1 <0>         0.1002
     41 H13        -2.8469   -1.2135   -6.4184 H         1 <0>         0.0994
     42 H14        -2.6745   -2.9002   -6.9600 H         1 <0>         0.0837
     43 H15         3.1455   -2.7738   -2.3013 H         1 <0>         0.4140
     44 H16         1.8743   -0.4758    0.1094 H         1 <0>         0.1626
     45 H17         2.0099    1.9743   -0.0765 H         1 <0>         0.1339
     46 H18         3.3010    3.0034   -1.9015 H         1 <0>         0.1339
     47 H19         4.4643    1.5867   -3.5434 H         1 <0>         0.1374
@<TRIPOS>BOND
     1    1    2 1
     2    1   30 1
     3    1   31 1
     4    1   32 1
     5    2    9 1
     6    2    3 2
     7    3    4 1
     8    3   20 1
     9    4    5 1
    10    4    6 1
    11    4   10 1
    12    6    7 1
    13    6   33 1
    14    7    8 2
    15    7    9 1
    16    9   34 1
    17   10   15 ar
    18   10   11 ar
    19   11   12 ar
    20   11   35 1
    21   12   13 ar
    22   12   36 1
    23   13   14 ar
    24   13   16 1
    25   14   15 ar
    26   14   37 1
    27   15   38 1
    28   16   17 am
    29   16   39 1
    30   17   18 2
    31   17   19 1
    32   19   40 1
    33   19   41 1
    34   19   42 1
    35   20   21 2
    36   20   22 am
    37   22   23 1
    38   22   43 1
    39   23   28 ar
    40   23   24 ar
    41   24   25 ar
    42   24   44 1
    43   25   26 ar
    44   25   45 1
    45   26   27 ar
    46   26   46 1
    47   27   28 ar
    48   27   47 1
    49   28   29 1
@<TRIPOS>MOLECULE
ZINC39856185
   51    53     0     0     0
SMALL
USER_CHARGES

@<TRIPOS>ATOM
      1 C1          0.0057    1.5030    0.0096 C.3       1 <0>        -0.1154
      2 C2          0.0197   -0.0039    0.0012 C.ar      1 <0>        -0.0969
      3 C3         -0.7241   -0.6955   -0.9372 C.ar      1 <0>        -0.1008
      4 C4         -0.7139   -2.0765   -0.9473 C.ar      1 <0>        -0.1373
      5 C5          0.0450   -2.7707   -0.0138 C.ar      1 <0>         0.1357
      6 C6          0.7913   -2.0729    0.9272 C.ar      1 <0>        -0.1150
      7 C7          0.7807   -0.6919    0.9285 C.ar      1 <0>        -0.1005
      8 N1          0.0572   -4.1689   -0.0209 N.am      1 <0>        -0.6637
      9 C8          0.1736   -4.8477    1.1376 C.2       1 <0>         0.6086
     10 O1          0.1714   -4.2485    2.1968 O.2       1 <0>        -0.4931
     11 C9          0.3029   -6.3088    1.1217 C.2       1 <0>        -0.1015
     12 C10         0.4221   -7.1119    2.2219 C.2       1 <0>        -0.0250
     13 C11         0.5183   -8.4232    1.7406 C.2       1 <0>        -0.1673
     14 C12         0.4557   -8.3650    0.3685 C.2       1 <0>         0.0845
     15 O2          0.3185   -7.0885    0.0168 O.3       1 <0>        -0.1431
     16 C13         0.5328   -9.5886   -0.5089 C.3       1 <0>        -0.0405
     17 C14         1.1835  -10.7339    0.2716 C.3       1 <0>        -0.0494
     18 C15         0.4669  -10.9526    1.6082 C.3       1 <0>        -0.1164
     19 C16         0.6606   -9.7079    2.4619 C.2       1 <0>         0.2170
     20 N2          0.9311   -9.7683    3.7292 N.2       1 <0>        -0.2815
     21 N3          1.0545  -11.0128    4.3606 N.pl3     1 <0>        -0.5376
     22 C17         1.3355  -11.0756    5.6772 C.2       1 <0>         0.6048
     23 S1          1.4863  -12.5964    6.4488 S.2       1 <0>        -0.6200
     24 N4          1.4978   -9.9411    6.3864 N.pl3     1 <0>        -0.7839
     25 C18         1.1062  -12.0172   -0.5579 C.3       1 <0>        -0.1449
     26 C19         2.6515  -10.3934    0.5363 C.3       1 <0>        -0.1553
     27 C20         0.4460   -6.6735    3.6635 C.3       1 <0>        -0.0994
     28 H1          0.8007    1.8773   -0.6355 H         1 <0>         0.0711
     29 H2         -0.9572    1.8595   -0.3563 H         1 <0>         0.0669
     30 H3          0.1636    1.8622    1.0265 H         1 <0>         0.0671
     31 H4         -1.3139   -0.1551   -1.6628 H         1 <0>         0.1278
     32 H5         -1.2955   -2.6161   -1.6800 H         1 <0>         0.1266
     33 H6          1.3820   -2.6097    1.6547 H         1 <0>         0.1347
     34 H7          1.3642   -0.1487    1.6571 H         1 <0>         0.1272
     35 H8         -0.0181   -4.6503   -0.8596 H         1 <0>         0.4151
     36 H9         -0.4719   -9.8813   -0.8138 H         1 <0>         0.1080
     37 H10         1.1306   -9.3652   -1.3926 H         1 <0>         0.1044
     38 H11        -0.5963  -11.1162    1.4328 H         1 <0>         0.1064
     39 H12         0.8935  -11.8172    2.1168 H         1 <0>         0.0863
     40 H13         0.9377  -11.8293    3.8501 H         1 <0>         0.4171
     41 H14         1.4124   -9.0794    5.9493 H         1 <0>         0.4079
     42 H15         1.7001   -9.9863    7.3340 H         1 <0>         0.4326
     43 H16         1.6328  -11.8723   -1.5012 H         1 <0>         0.0683
     44 H17         1.5685  -12.8352   -0.0056 H         1 <0>         0.0676
     45 H18         0.0621  -12.2582   -0.7579 H         1 <0>         0.0651
     46 H19         2.7120   -9.4739    1.1184 H         1 <0>         0.0594
     47 H20         3.1186  -11.2066    1.0920 H         1 <0>         0.0630
     48 H21         3.1698  -10.2573   -0.4129 H         1 <0>         0.0680
     49 H22        -0.5709   -6.6589    4.0557 H         1 <0>         0.0799
     50 H23         1.0498   -7.3700    4.2451 H         1 <0>         0.0767
     51 H24         0.8763   -5.6744    3.7323 H         1 <0>         0.0906
@<TRIPOS>BOND
     1    1    2 1
     2    1   28 1
     3    1   29 1
     4    1   30 1
     5    2    7 ar
     6    2    3 ar
     7    3    4 ar
     8    3   31 1
     9    4    5 ar
    10    4   32 1
    11    5    6 ar
    12    5    8 1
    13    6    7 ar
    14    6   33 1
    15    7   34 1
    16    8    9 am
    17    8   35 1
    18    9   10 2
    19    9   11 1
    20   11   15 1
    21   11   12 2
    22   12   13 1
    23   12   27 1
    24   13   19 1
    25   13   14 2
    26   14   15 1
    27   14   16 1
    28   16   17 1
    29   16   36 1
    30   16   37 1
    31   17   18 1
    32   17   25 1
    33   17   26 1
    34   18   19 1
    35   18   38 1
    36   18   39 1
    37   19   20 2
    38   20   21 1
    39   21   22 1
    40   21   40 1
    41   22   23 2
    42   22   24 1
    43   24   41 1
    44   24   42 1
    45   25   43 1
    46   25   44 1
    47   25   45 1
    48   26   46 1
    49   26   47 1
    50   26   48 1
    51   27   49 1
    52   27   50 1
    53   27   51 1
@<TRIPOS>MOLECULE
ZINC45696002
   45    47     0     0     0
SMALL
USER_CHARGES

@<TRIPOS>ATOM
      1 C1         -0.0136    1.5050    0.0267 C.3       1 <0>        -0.1668
      2 C2         -0.0019   -0.0249    0.0075 C.3       1 <0>         0.2453
      3 H1         -1.0267   -0.3961    0.0096 H         1 <0>         0.1235
      4 C3          0.7204   -0.5370    1.2269 C.2       1 <0>         0.0196
      5 C4          0.1239   -0.9961    2.3354 C.2       1 <0>        -0.1836
      6 C5          1.2040   -1.3839    3.2506 C.ar      1 <0>        -0.1316
      7 C6          1.2465   -1.9202    4.5367 C.ar      1 <0>        -0.0689
      8 C7          2.4541   -2.1724    5.1263 C.ar      1 <0>        -0.1346
      9 C8          3.6357   -1.8976    4.4529 C.ar      1 <0>        -0.0904
     10 C9          3.6133   -1.3673    3.1807 C.ar      1 <0>        -0.1073
     11 C10         2.3968   -1.1039    2.5633 C.ar      1 <0>         0.0557
     12 O1          2.0568   -0.6050    1.3579 O.3       1 <0>        -0.1905
     13 N1          0.6845   -0.4929   -1.1992 N.am      1 <0>        -0.7367
     14 C11         0.0055   -0.6123   -2.3573 C.2       1 <0>         0.7118
     15 O2         -1.1768   -0.3315   -2.4006 O.2       1 <0>        -0.5663
     16 N2          0.6370   -1.0428   -3.4674 N.am      1 <0>        -0.6780
     17 C12        -0.0920   -1.2799   -4.6412 C.ar      1 <0>         0.1926
     18 C13        -1.4439   -1.5786   -4.5715 C.ar      1 <0>        -0.1132
     19 C14        -2.1610   -1.8126   -5.7302 C.ar      1 <0>        -0.0992
     20 C15        -1.5340   -1.7499   -6.9612 C.ar      1 <0>        -0.1203
     21 C16        -0.1866   -1.4523   -7.0406 C.ar      1 <0>        -0.1140
     22 C17         0.5397   -1.2103   -5.8831 C.ar      1 <0>        -0.1367
     23 S1          2.2559   -0.8236   -5.9812 S.3       1 <0>        -0.0435
     24 C18         2.6106   -0.8498   -7.7600 C.3       1 <0>        -0.1500
     25 C19         4.0658   -0.5305   -7.9868 C.2       1 <0>         0.5367
     26 O3          4.7921   -0.3072   -7.0415 O.2       1 <0>        -0.5205
     27 N3          4.5602   -0.4930   -9.2401 N.am      1 <0>        -0.8478
     28 H2          1.0112    1.8762    0.0245 H         1 <0>         0.0647
     29 H3         -0.5360    1.8754   -0.8553 H         1 <0>         0.0772
     30 H4         -0.5243    1.8531    0.9244 H         1 <0>         0.0756
     31 H5         -0.9381   -1.0666    2.5187 H         1 <0>         0.1622
     32 H6          0.3295   -2.1351    5.0652 H         1 <0>         0.1291
     33 H7          2.4885   -2.5879    6.1226 H         1 <0>         0.1312
     34 H8          4.5827   -2.1010    4.9305 H         1 <0>         0.1368
     35 H9          4.5389   -1.1567    2.6655 H         1 <0>         0.1333
     36 H10         1.6277   -0.7168   -1.1647 H         1 <0>         0.4052
     37 H11         1.5959   -1.1886   -3.4542 H         1 <0>         0.4100
     38 H12        -1.9370   -1.6289   -3.6119 H         1 <0>         0.1541
     39 H13        -3.2141   -2.0456   -5.6738 H         1 <0>         0.1297
     40 H14        -2.0987   -1.9342   -7.8631 H         1 <0>         0.1270
     41 H15         0.3000   -1.4041   -8.0035 H         1 <0>         0.1240
     42 H16         2.3891   -1.8392   -8.1601 H         1 <0>         0.1202
     43 H17         1.9927   -0.1070   -8.2647 H         1 <0>         0.1206
     44 H18         3.9792   -0.6716   -9.9961 H         1 <0>         0.4045
     45 H19         5.4968   -0.2875   -9.3860 H         1 <0>         0.4094
@<TRIPOS>BOND
     1    1    2 1
     2    1   28 1
     3    1   29 1
     4    1   30 1
     5    2    3 1
     6    2    4 1
     7    2   13 1
     8    4   12 1
     9    4    5 2
    10    5    6 1
    11    5   31 1
    12    6   11 ar
    13    6    7 ar
    14    7    8 ar
    15    7   32 1
    16    8    9 ar
    17    8   33 1
    18    9   10 ar
    19    9   34 1
    20   10   11 ar
    21   10   35 1
    22   11   12 1
    23   13   14 am
    24   13   36 1
    25   14   15 2
    26   14   16 am
    27   16   17 1
    28   16   37 1
    29   17   22 ar
    30   17   18 ar
    31   18   19 ar
    32   18   38 1
    33   19   20 ar
    34   19   39 1
    35   20   21 ar
    36   20   40 1
    37   21   22 ar
    38   21   41 1
    39   22   23 1
    40   23   24 1
    41   24   25 1
    42   24   42 1
    43   24   43 1
    44   25   26 2
    45   25   27 am
    46   27   44 1
    47   27   45 1
@<TRIPOS>MOLECULE
ZINC56206620
   48    49     0     0     0
SMALL
USER_CHARGES

@<TRIPOS>ATOM
      1 C1         -0.0638    1.5019    0.0159 C.3       1 <0>        -0.1147
      2 C2         -0.0311   -0.0047    0.0059 C.ar      1 <0>        -0.0894
      3 C3         -0.6218   -0.7007   -1.0329 C.ar      1 <0>        -0.0929
      4 C4         -0.5942   -2.0815   -1.0454 C.ar      1 <0>        -0.1152
      5 C5          0.0280   -2.7716   -0.0136 C.ar      1 <0>         0.1524
      6 C6          0.6212   -2.0698    1.0288 C.ar      1 <0>        -0.0640
      7 C7          0.5944   -0.6878    1.0324 C.ar      1 <0>        -0.0900
      8 Cl1         1.4005   -2.9275    2.3214 Cl        1 <0>        -0.0644
      9 N1          0.0572   -4.1710   -0.0232 N.am      1 <0>        -0.6638
     10 C8         -0.0419   -4.8391   -1.1895 C.2       1 <0>         0.5139
     11 O1         -0.0553   -4.2299   -2.2382 O.2       1 <0>        -0.5066
     12 C9         -0.1360   -6.3432   -1.1907 C.3       1 <0>         0.1376
     13 H1          0.7536   -6.7633   -0.7213 H         1 <0>         0.1082
     14 C10        -1.3779   -6.7771   -0.4095 C.3       1 <0>        -0.1689
     15 N2         -0.2339   -6.8253   -2.5706 N.pl3     1 <0>        -0.7316
     16 C11         0.1831   -8.1224   -2.8899 C.ar      1 <0>         0.1870
     17 C12         0.6845   -8.9550   -1.8978 C.ar      1 <0>        -0.1579
     18 C13         1.0953  -10.2349   -2.2136 C.ar      1 <0>        -0.1654
     19 C14         1.0078  -10.6891   -3.5215 C.ar      1 <0>         0.0770
     20 C15         0.5077   -9.8582   -4.5128 C.ar      1 <0>        -0.0976
     21 C16         0.0905   -8.5797   -4.1975 C.ar      1 <0>        -0.1126
     22 C17        -0.4591   -7.6793   -5.2737 C.3       1 <0>        -0.1092
     23 O2          1.4130  -11.9497   -3.8317 O.3       1 <0>        -0.2928
     24 C18         1.9180  -12.7507   -2.7615 C.3       1 <0>         0.0419
     25 C19         2.3149  -14.1045   -3.2912 C.2       1 <0>         0.5185
     26 O3          2.1787  -14.3585   -4.4693 O.2       1 <0>        -0.5170
     27 N3          2.8211  -15.0331   -2.4558 N.am      1 <0>        -0.8513
     28 H2          0.8122    1.8879   -0.5052 H         1 <0>         0.0742
     29 H3         -0.9672    1.8491   -0.4856 H         1 <0>         0.0707
     30 H4         -0.0603    1.8586    1.0459 H         1 <0>         0.0694
     31 H5         -1.1057   -0.1637   -1.8354 H         1 <0>         0.1339
     32 H6         -1.0565   -2.6240   -1.8568 H         1 <0>         0.1541
     33 H7          1.0590   -0.1413    1.8397 H         1 <0>         0.1382
     34 H8          0.1487   -4.6600    0.8095 H         1 <0>         0.4146
     35 H9         -1.3051   -6.4184    0.6172 H         1 <0>         0.0695
     36 H10        -2.2675   -6.3570   -0.8789 H         1 <0>         0.0684
     37 H11        -1.4460   -7.8650   -0.4104 H         1 <0>         0.0790
     38 H12        -0.5878   -6.2454   -3.2630 H         1 <0>         0.4098
     39 H13         0.7534   -8.6013   -0.8797 H         1 <0>         0.1245
     40 H14         1.4853  -10.8825   -1.4423 H         1 <0>         0.1264
     41 H15         0.4405  -10.2123   -5.5309 H         1 <0>         0.1336
     42 H16         0.3553   -7.1111   -5.7231 H         1 <0>         0.0716
     43 H17        -0.9462   -8.2834   -6.0392 H         1 <0>         0.0715
     44 H18        -1.1841   -6.9921   -4.8374 H         1 <0>         0.0626
     45 H19         2.7882  -12.2631   -2.3220 H         1 <0>         0.0920
     46 H20         1.1459  -12.8700   -2.0013 H         1 <0>         0.0922
     47 H21         2.9301  -14.8300   -1.5136 H         1 <0>         0.4031
     48 H22         3.0766  -15.9045   -2.7968 H         1 <0>         0.4094
@<TRIPOS>BOND
     1    1    2 1
     2    1   28 1
     3    1   29 1
     4    1   30 1
     5    2    7 ar
     6    2    3 ar
     7    3    4 ar
     8    3   31 1
     9    4    5 ar
    10    4   32 1
    11    5    6 ar
    12    5    9 1
    13    6    7 ar
    14    6    8 1
    15    7   33 1
    16    9   10 am
    17    9   34 1
    18   10   11 2
    19   10   12 1
    20   12   13 1
    21   12   14 1
    22   12   15 1
    23   14   35 1
    24   14   36 1
    25   14   37 1
    26   15   16 1
    27   15   38 1
    28   16   21 ar
    29   16   17 ar
    30   17   18 ar
    31   17   39 1
    32   18   19 ar
    33   18   40 1
    34   19   20 ar
    35   19   23 1
    36   20   21 ar
    37   20   41 1
    38   21   22 1
    39   22   42 1
    40   22   43 1
    41   22   44 1
    42   23   24 1
    43   24   25 1
    44   24   45 1
    45   24   46 1
    46   25   26 2
    47   25   27 am
    48   27   47 1
    49   27   48 1
@<TRIPOS>MOLECULE
ZINC13865733
   38    39     0     0     0
SMALL
USER_CHARGES

@<TRIPOS>ATOM
      1 C1          1.5910    1.1374   -0.0657 C.3       1 <0>        -0.1070
      2 C2          1.1632   -0.3075   -0.0730 C.ar      1 <0>         0.1102
      3 C3          0.7898   -0.9042   -1.2659 C.ar      1 <0>         0.0986
      4 C4          0.3939   -2.2526   -1.2552 C.ar      1 <0>        -0.0441
      5 C5          0.3968   -2.9308   -0.0294 C.ar      1 <0>        -0.1041
      6 C6          0.7843   -2.2554    1.1083 C.ar      1 <0>         0.1208
      7 N1          1.1542   -0.9897    1.0557 N.ar      1 <0>        -0.4536
      8 C7         -0.0181   -4.3777    0.0446 C.3       1 <0>         0.1177
      9 O1          0.0723   -4.8306    1.3969 O.3       1 <0>        -0.5657
     10 C8         -0.0129   -2.9332   -2.4974 C.2       1 <0>         0.1444
     11 N2         -0.0090   -2.2866   -3.6230 N.2       1 <0>        -0.2515
     12 N3         -0.3958   -2.9337   -4.8039 N.pl3     1 <0>        -0.5337
     13 C9         -0.3918   -2.2624   -5.9725 C.2       1 <0>         0.5854
     14 S1         -0.8644   -3.0531   -7.4156 S.2       1 <0>        -0.5774
     15 N4         -0.0156   -0.9686   -6.0052 N.pl3     1 <0>        -0.6096
     16 C10         0.0742   -0.2969   -7.2292 C.ar      1 <0>         0.1331
     17 C11        -0.9426   -0.4214   -8.1673 C.ar      1 <0>        -0.0536
     18 C12        -0.8521    0.2424   -9.3749 C.ar      1 <0>        -0.0907
     19 C13         0.2505    1.0315   -9.6515 C.ar      1 <0>        -0.0218
     20 C14         1.2660    1.1577   -8.7184 C.ar      1 <0>        -0.0285
     21 C15         1.1772    0.4998   -7.5059 C.ar      1 <0>        -0.0988
     22 Cl1         2.6480    2.1481   -9.0689 Cl        1 <0>        -0.0408
     23 Cl2         0.3613    1.8640  -11.1708 Cl        1 <0>        -0.0423
     24 O2          0.8055   -0.1980   -2.4262 O.3       1 <0>        -0.4705
     25 H1          2.6669    1.1986   -0.2298 H         1 <0>         0.0811
     26 H2          1.0714    1.6743   -0.8594 H         1 <0>         0.0841
     27 H3          1.3443    1.5846    0.8972 H         1 <0>         0.0829
     28 H4          0.7888   -2.7713    2.0570 H         1 <0>         0.1765
     29 H5         -1.0457   -4.4793   -0.3047 H         1 <0>         0.0680
     30 H6          0.6403   -4.9771   -0.5841 H         1 <0>         0.0680
     31 H7         -0.1806   -5.7558    1.5196 H         1 <0>         0.3926
     32 H8         -0.3143   -3.9700   -2.4712 H         1 <0>         0.1350
     33 H9         -0.6665   -3.8649   -4.7804 H         1 <0>         0.4208
     34 H10         0.1928   -0.5031   -5.1801 H         1 <0>         0.4246
     35 H11        -1.8034   -1.0373   -7.9526 H         1 <0>         0.1626
     36 H12        -1.6425    0.1453  -10.1044 H         1 <0>         0.1511
     37 H13         1.9668    0.6021   -6.7762 H         1 <0>         0.1451
     38 H14         1.6470   -0.2400   -2.9009 H         1 <0>         0.3911
@<TRIPOS>BOND
     1    1    2 1
     2    1   25 1
     3    1   26 1
     4    1   27 1
     5    2    7 ar
     6    2    3 ar
     7    3    4 ar
     8    3   24 1
     9    4    5 ar
    10    4   10 1
    11    5    6 ar
    12    5    8 1
    13    6    7 ar
    14    6   28 1
    15    8    9 1
    16    8   29 1
    17    8   30 1
    18    9   31 1
    19   10   11 2
    20   10   32 1
    21   11   12 1
    22   12   13 1
    23   12   33 1
    24   13   14 2
    25   13   15 1
    26   15   16 1
    27   15   34 1
    28   16   21 ar
    29   16   17 ar
    30   17   18 ar
    31   17   35 1
    32   18   19 ar
    33   18   36 1
    34   19   20 ar
    35   19   23 1
    36   20   21 ar
    37   20   22 1
    38   21   37 1
    39   24   38 1
@<TRIPOS>MOLECULE
ZINC67193419
   57    58     0     0     0
SMALL
USER_CHARGES

@<TRIPOS>ATOM
      1 C1         -0.0312    1.1842    0.0864 C.3       1 <0>        -0.1474
      2 C2          0.3310   -0.2994    0.1444 C.3       1 <0>        -0.0821
      3 H1         -0.6262   -0.8566    0.2375 H         1 <0>         0.0592
      4 C3          0.9791   -0.7445   -1.1589 C.3       1 <0>        -0.1143
      5 C4          2.4138   -0.2284   -1.2541 C.3       1 <0>        -0.0685
      6 H2          2.4269    0.8580   -1.2276 H         1 <0>         0.0859
      7 C5          3.2233   -0.8014   -0.0929 C.3       1 <0>        -0.1017
      8 C6          2.6520   -0.3423    1.2441 C.3       1 <0>        -0.0550
      9 C7          1.1652   -0.6256    1.3666 C.3       1 <0>        -0.1007
     10 C8          3.3803   -1.1234    2.3594 C.3       1 <0>        -0.1474
     11 C9          2.9478    1.1447    1.4581 C.3       1 <0>        -0.1463
     12 C10         3.0299   -0.6992   -2.5772 C.3       1 <0>        -0.1299
     13 C11         2.2953   -0.0617   -3.7283 C.2       1 <0>         0.5198
     14 O1          1.3710    0.6938   -3.5140 O.2       1 <0>        -0.5081
     15 N1          2.6653   -0.3313   -4.9959 N.am      1 <0>        -0.5551
     16 N2          1.9824    0.2613   -6.0661 N.pl3     1 <0>        -0.4631
     17 C12         2.3524   -0.0082   -7.3337 C.2       1 <0>         0.5540
     18 S1          1.5178    0.7159   -8.6414 S.2       1 <0>        -0.5691
     19 N3          3.3795   -0.8478   -7.5719 N.pl3     1 <0>        -0.6288
     20 C13         3.6885   -1.2203   -8.8844 C.ar      1 <0>         0.1383
     21 C14         5.0149   -1.3018   -9.2902 C.ar      1 <0>        -0.1344
     22 C15         5.3209   -1.6700  -10.5860 C.ar      1 <0>        -0.0936
     23 C16         4.3096   -1.9584  -11.4825 C.ar      1 <0>        -0.1128
     24 C17         2.9817   -1.8783  -11.0832 C.ar      1 <0>         0.1537
     25 C18         2.6711   -1.5142   -9.7806 C.ar      1 <0>        -0.0999
     26 N4          1.9583   -2.1700  -11.9917 N.am      1 <0>        -0.6720
     27 C19         2.1373   -3.1268  -12.9239 C.2       1 <0>         0.5116
     28 O2          3.2121   -3.6792  -13.0273 O.2       1 <0>        -0.5269
     29 C20         1.0020   -3.5103  -13.8377 C.3       1 <0>        -0.1745
     30 H3          0.8788    1.7771   -0.0056 H         1 <0>         0.0579
     31 H4         -0.6733    1.3681   -0.7750 H         1 <0>         0.0546
     32 H5         -0.5576    1.4656    0.9985 H         1 <0>         0.0506
     33 H6          0.9853   -1.8364   -1.2111 H         1 <0>         0.0549
     34 H7          0.4023   -0.3598   -2.0044 H         1 <0>         0.0796
     35 H8          3.2016   -1.8931   -0.1419 H         1 <0>         0.0639
     36 H9          4.2611   -0.4692   -0.1781 H         1 <0>         0.0634
     37 H10         0.7699   -0.0618    2.2272 H         1 <0>         0.0600
     38 H11         1.0308   -1.6917    1.6130 H         1 <0>         0.0561
     39 H12         4.4488   -0.9135    2.3118 H         1 <0>         0.0545
     40 H13         2.9926   -0.8163    3.3307 H         1 <0>         0.0546
     41 H14         3.2135   -2.1919    2.2230 H         1 <0>         0.0533
     42 H15         2.4922    1.7248    0.6556 H         1 <0>         0.0603
     43 H16         2.5357    1.4630    2.4157 H         1 <0>         0.0544
     44 H17         4.0260    1.3047    1.4552 H         1 <0>         0.0532
     45 H18         4.0804   -0.4102   -2.6119 H         1 <0>         0.1036
     46 H19         2.9488   -1.7837   -2.6503 H         1 <0>         0.1032
     47 H20         3.4045   -0.9355   -5.1673 H         1 <0>         0.4199
     48 H21         1.2432    0.8656   -5.8947 H         1 <0>         0.4611
     49 H22         3.9044   -1.1937   -6.8332 H         1 <0>         0.4017
     50 H23         5.8075   -1.0767   -8.5920 H         1 <0>         0.1262
     51 H24         6.3526   -1.7323  -10.8991 H         1 <0>         0.1337
     52 H25         4.5521   -2.2460  -12.4949 H         1 <0>         0.1429
     53 H26         1.6395   -1.4555   -9.4665 H         1 <0>         0.1473
     54 H27         1.1201   -1.6836  -11.9507 H         1 <0>         0.4156
     55 H28         0.6875   -2.6388  -14.4119 H         1 <0>         0.0930
     56 H29         1.3328   -4.2942  -14.5190 H         1 <0>         0.0973
     57 H30         0.1644   -3.8753  -13.2432 H         1 <0>         0.0924
@<TRIPOS>BOND
     1    1    2 1
     2    1   30 1
     3    1   31 1
     4    1   32 1
     5    2    3 1
     6    2    9 1
     7    2    4 1
     8    4    5 1
     9    4   33 1
    10    4   34 1
    11    5    6 1
    12    5    7 1
    13    5   12 1
    14    7    8 1
    15    7   35 1
    16    7   36 1
    17    8    9 1
    18    8   10 1
    19    8   11 1
    20    9   37 1
    21    9   38 1
    22   10   39 1
    23   10   40 1
    24   10   41 1
    25   11   42 1
    26   11   43 1
    27   11   44 1
    28   12   13 1
    29   12   45 1
    30   12   46 1
    31   13   14 2
    32   13   15 am
    33   15   16 1
    34   15   47 1
    35   16   17 1
    36   16   48 1
    37   17   18 2
    38   17   19 1
    39   19   20 1
    40   19   49 1
    41   20   25 ar
    42   20   21 ar
    43   21   22 ar
    44   21   50 1
    45   22   23 ar
    46   22   51 1
    47   23   24 ar
    48   23   52 1
    49   24   25 ar
    50   24   26 1
    51   25   53 1
    52   26   27 am
    53   26   54 1
    54   27   28 2
    55   27   29 1
    56   29   55 1
    57   29   56 1
    58   29   57 1
@<TRIPOS>MOLECULE
ZINC35354673
   34    35     0     0     0
SMALL
USER_CHARGES

@<TRIPOS>ATOM
      1 C1          0.1526    1.6912    0.1433 C.3       1 <0>        -0.1142
      2 C2          0.2576    0.1927    0.0222 C.ar      1 <0>        -0.1035
      3 C3          0.4265   -0.3905   -1.2184 C.ar      1 <0>        -0.0982
      4 C4          0.5225   -1.7653   -1.3305 C.ar      1 <0>        -0.1311
      5 C5          0.4501   -2.5610   -0.2016 C.ar      1 <0>        -0.0954
      6 C6          0.2817   -1.9845    1.0418 C.ar      1 <0>        -0.1714
      7 C7          0.1902   -0.6031    1.1585 C.ar      1 <0>         0.1562
      8 N1          0.0251   -0.0163    2.4152 N.pl3     1 <0>        -1.0551
      9 S1          0.7638   -0.6778    3.7415 S.o2      1 <0>         2.6945
     10 O1          0.5188    0.2067    4.8263 O.2       1 <0>        -0.9549
     11 O2          0.3869   -2.0475    3.7753 O.2       1 <0>        -0.9529
     12 C8          2.5001   -0.6405    3.4435 C.ar      1 <0>        -0.7302
     13 C9          3.1154   -1.7082    2.8160 C.ar      1 <0>         0.0339
     14 C10         4.4761   -1.6822    2.5809 C.ar      1 <0>        -0.2139
     15 C11         5.2266   -0.5819    2.9755 C.ar      1 <0>         0.2759
     16 C12         4.6052    0.4889    3.6056 C.ar      1 <0>        -0.2048
     17 C13         3.2433    0.4588    3.8326 C.ar      1 <0>         0.0286
     18 N2          6.6030   -0.5525    2.7397 N.pl3     1 <0>        -0.5868
     19 N3          7.3395    0.5302    3.1284 N.3       1 <0>        -0.6057
     20 H1          1.1476    2.1155    0.2772 H         1 <0>         0.0736
     21 H2         -0.2973    2.0983   -0.7622 H         1 <0>         0.0707
     22 H3         -0.4687    1.9436    1.0027 H         1 <0>         0.0632
     23 H4          0.4834    0.2280   -2.1020 H         1 <0>         0.1262
     24 H5          0.6538   -2.2188   -2.3018 H         1 <0>         0.1245
     25 H6          0.5250   -3.6345   -0.2927 H         1 <0>         0.1291
     26 H7          0.2249   -2.6065    1.9228 H         1 <0>         0.1607
     27 H8         -0.5223    0.7788    2.5111 H         1 <0>         0.4249
     28 H9          2.5314   -2.5635    2.5098 H         1 <0>         0.1397
     29 H10         4.9561   -2.5165    2.0911 H         1 <0>         0.1312
     30 H11         5.1859    1.3457    3.9140 H         1 <0>         0.1363
     31 H12         2.7589    1.2929    4.3184 H         1 <0>         0.1392
     32 H13         7.0358   -1.3009    2.3000 H         1 <0>         0.4075
     33 H14         7.2258    0.7097    4.1148 H         1 <0>         0.3396
     34 H15         8.3131    0.4087    2.8929 H         1 <0>         0.3623
@<TRIPOS>BOND
     1    1    2 1
     2    1   20 1
     3    1   21 1
     4    1   22 1
     5    2    7 ar
     6    2    3 ar
     7    3    4 ar
     8    3   23 1
     9    4    5 ar
    10    4   24 1
    11    5    6 ar
    12    5   25 1
    13    6    7 ar
    14    6   26 1
    15    7    8 1
    16    8    9 1
    17    8   27 1
    18    9   10 2
    19    9   11 2
    20    9   12 1
    21   12   17 ar
    22   12   13 ar
    23   13   14 ar
    24   13   28 1
    25   14   15 ar
    26   14   29 1
    27   15   16 ar
    28   15   18 1
    29   16   17 ar
    30   16   30 1
    31   17   31 1
    32   18   19 1
    33   18   32 1
    34   19   33 1
    35   19   34 1
@<TRIPOS>MOLECULE
ZINC40372948
   50    51     0     0     0
SMALL
USER_CHARGES

@<TRIPOS>ATOM
      1 C1         -0.4923    1.1817    0.0872 C.3       1 <0>        -0.1168
      2 C2          0.8831    1.6263   -0.4508 C.3       1 <0>        -0.1227
      3 C3          1.8020    1.8562    0.7183 C.3       1 <0>        -0.1175
      4 C4          2.6531    0.6160    1.0519 C.3       1 <0>        -0.1140
      5 C5          1.8514   -0.6973    0.9738 C.3       1 <0>         0.2067
      6 C6          0.4765   -0.5692    1.5718 C.3       1 <0>        -0.1028
      7 C7         -0.5189   -0.2291    0.4437 C.3       1 <0>        -0.1184
      8 C8          2.6056   -1.7735    1.7114 C.2       1 <0>         0.3831
      9 N1          2.6728   -1.7468    3.0012 N.2       1 <0>        -0.4300
     10 O1          2.1174   -0.6584    3.7168 O.3       1 <0>        -0.4090
     11 N2          3.2231   -2.7855    1.0105 N.pl3     1 <0>        -0.8239
     12 N3          1.7222   -1.0909   -0.4314 N.am      1 <0>        -0.7338
     13 C9          1.1427   -2.2648   -0.7519 C.2       1 <0>         0.5028
     14 O2          0.6310   -2.9444    0.1125 O.2       1 <0>        -0.5124
     15 C10         1.1307   -2.7329   -2.1843 C.3       1 <0>        -0.1444
     16 C11         0.4171   -4.0834   -2.2735 C.3       1 <0>        -0.0953
     17 C12         0.4049   -4.5586   -3.7278 C.3       1 <0>        -0.0933
     18 C13        -0.4989   -3.6405   -4.5763 C.3       1 <0>        -0.1223
     19 C14        -1.1860   -4.6030   -5.5765 C.3       1 <0>        -0.1269
     20 C15        -1.4471   -5.8628   -4.7142 C.3       1 <0>        -0.1264
     21 C16        -0.1979   -5.9717   -3.8155 C.3       1 <0>        -0.1221
     22 H1         -0.7341    1.7735    0.9701 H         1 <0>         0.0598
     23 H2         -1.2470    1.3669   -0.6771 H         1 <0>         0.0571
     24 H3          1.2947    0.8471   -1.0923 H         1 <0>         0.0650
     25 H4          0.7731    2.5509   -1.0175 H         1 <0>         0.0650
     26 H5          2.4669    2.6881    0.4861 H         1 <0>         0.0652
     27 H6          1.2037    2.1184    1.5909 H         1 <0>         0.0681
     28 H7          3.4856    0.5620    0.3503 H         1 <0>         0.0668
     29 H8          3.0525    0.7246    2.0602 H         1 <0>         0.0883
     30 H9          0.1916   -1.5114    2.0398 H         1 <0>         0.0740
     31 H10         0.4735    0.2278    2.3153 H         1 <0>         0.0819
     32 H11        -1.5253   -0.4919    0.7699 H         1 <0>         0.0562
     33 H12        -0.2697   -0.8206   -0.4372 H         1 <0>         0.0674
     34 H13         2.2163   -0.7271    4.6762 H         1 <0>         0.3957
     35 H14         3.2063   -2.7840    0.0406 H         1 <0>         0.4043
     36 H15         3.6748   -3.4997    1.4866 H         1 <0>         0.4036
     37 H16         2.0538   -0.5067   -1.1312 H         1 <0>         0.4028
     38 H17         0.6057   -2.0031   -2.8007 H         1 <0>         0.0944
     39 H18         2.1554   -2.8392   -2.5404 H         1 <0>         0.0932
     40 H19         0.9421   -4.8132   -1.6572 H         1 <0>         0.0700
     41 H20        -0.6076   -3.9771   -1.9174 H         1 <0>         0.0712
     42 H21         1.4186   -4.5597   -4.1285 H         1 <0>         0.0716
     43 H22        -1.2418   -3.1497   -3.9474 H         1 <0>         0.0666
     44 H23         0.1002   -2.9014   -5.1082 H         1 <0>         0.0635
     45 H24        -2.1239   -4.1804   -5.9370 H         1 <0>         0.0647
     46 H25        -0.5208   -4.8352   -6.4082 H         1 <0>         0.0659
     47 H26        -2.3431   -5.7310   -4.1077 H         1 <0>         0.0645
     48 H27        -1.5400   -6.7456   -5.3468 H         1 <0>         0.0636
     49 H28         0.5228   -6.6582   -4.2596 H         1 <0>         0.0628
     50 H29        -0.4818   -6.3188   -2.8220 H         1 <0>         0.0659
@<TRIPOS>BOND
     1    1    7 1
     2    1    2 1
     3    1   22 1
     4    1   23 1
     5    2    3 1
     6    2   24 1
     7    2   25 1
     8    3    4 1
     9    3   26 1
    10    3   27 1
    11    4    5 1
    12    4   28 1
    13    4   29 1
    14    5    6 1
    15    5    8 1
    16    5   12 1
    17    6    7 1
    18    6   30 1
    19    6   31 1
    20    7   32 1
    21    7   33 1
    22    8    9 2
    23    8   11 1
    24    9   10 1
    25   10   34 1
    26   11   35 1
    27   11   36 1
    28   12   13 am
    29   12   37 1
    30   13   14 2
    31   13   15 1
    32   15   16 1
    33   15   38 1
    34   15   39 1
    35   16   17 1
    36   16   40 1
    37   16   41 1
    38   17   21 1
    39   17   18 1
    40   17   42 1
    41   18   19 1
    42   18   43 1
    43   18   44 1
    44   19   20 1
    45   19   45 1
    46   19   46 1
    47   20   21 1
    48   20   47 1
    49   20   48 1
    50   21   49 1
    51   21   50 1
@<TRIPOS>MOLECULE
ZINC44690279
   40    41     0     0     0
SMALL
USER_CHARGES

@<TRIPOS>ATOM
      1 C1         -0.0187    1.5258    0.0104 C.3       1 <0>        -0.1521
      2 C2          0.0021   -0.0041    0.0020 C.3       1 <0>         0.0571
      3 O1         -1.3386   -0.4987    0.0122 O.3       1 <0>        -0.3851
      4 C3         -1.4321   -1.9246    0.0054 C.3       1 <0>         0.0523
      5 C4         -2.9048   -2.3392    0.0172 C.3       1 <0>         0.1595
      6 H1         -2.9763   -3.4236    0.1017 H         1 <0>         0.0893
      7 C5         -3.6085   -1.6873    1.2091 C.3       1 <0>        -0.1660
      8 N1         -3.5449   -1.9029   -1.2262 N.pl3     1 <0>        -0.7435
      9 C6         -4.6810   -2.5729   -1.7025 C.ar      1 <0>         0.1366
     10 C7         -5.2023   -3.6447   -0.9941 C.ar      1 <0>        -0.1235
     11 C8         -6.3217   -4.3060   -1.4631 C.ar      1 <0>        -0.1292
     12 C9         -6.9277   -3.8992   -2.6445 C.ar      1 <0>         0.1489
     13 C10        -6.4103   -2.8261   -3.3572 C.ar      1 <0>        -0.1877
     14 C11        -5.2909   -2.1581   -2.8861 C.ar      1 <0>         0.1820
     15 N2         -4.7701   -1.0722   -3.6001 N.pl3     1 <0>        -0.8792
     16 N3         -8.0618   -4.5730   -3.1154 N.am      1 <0>        -0.6606
     17 C12        -8.7883   -5.3459   -2.2875 C.2       1 <0>         0.5207
     18 O2         -9.7592   -5.9344   -2.7143 O.2       1 <0>        -0.5353
     19 C13        -8.4096   -5.4889   -0.8380 C.3       1 <0>        -0.1378
     20 C14        -6.8878   -5.4713   -0.6934 C.3       1 <0>        -0.0703
     21 H2          1.0039    1.9031    0.0027 H         1 <0>         0.0715
     22 H3         -0.5459    1.8868   -0.8726 H         1 <0>         0.0622
     23 H4         -0.5289    1.8773    0.9072 H         1 <0>         0.0633
     24 H5          0.5123   -0.3556   -0.8948 H         1 <0>         0.0478
     25 H6          0.5293   -0.3651    0.8851 H         1 <0>         0.0491
     26 H7         -0.9516   -2.3160   -0.8913 H         1 <0>         0.0550
     27 H8         -0.9346   -2.3255    0.8885 H         1 <0>         0.0630
     28 H9         -3.5370   -0.6030    1.1247 H         1 <0>         0.0669
     29 H10        -4.6577   -1.9827    1.2176 H         1 <0>         0.0590
     30 H11        -3.1323   -2.0119    2.1343 H         1 <0>         0.0600
     31 H12        -3.1829   -1.1506   -1.7200 H         1 <0>         0.3965
     32 H13        -4.7329   -3.9635   -0.0752 H         1 <0>         0.1284
     33 H14        -6.8817   -2.5099   -4.2760 H         1 <0>         0.1256
     34 H15        -3.9845   -0.6076   -3.2716 H         1 <0>         0.3938
     35 H16        -5.1950   -0.7844   -4.4233 H         1 <0>         0.3997
     36 H17        -8.3251   -4.4822   -4.0445 H         1 <0>         0.4079
     37 H18        -8.8369   -4.6632   -0.2690 H         1 <0>         0.1024
     38 H19        -8.7987   -6.4316   -0.4534 H         1 <0>         0.1063
     39 H20        -6.4752   -6.4006   -1.0861 H         1 <0>         0.0783
     40 H21        -6.6240   -5.3735    0.3597 H         1 <0>         0.0870
@<TRIPOS>BOND
     1    1    2 1
     2    1   21 1
     3    1   22 1
     4    1   23 1
     5    2    3 1
     6    2   24 1
     7    2   25 1
     8    3    4 1
     9    4    5 1
    10    4   26 1
    11    4   27 1
    12    5    6 1
    13    5    7 1
    14    5    8 1
    15    7   28 1
    16    7   29 1
    17    7   30 1
    18    8    9 1
    19    8   31 1
    20    9   14 ar
    21    9   10 ar
    22   10   11 ar
    23   10   32 1
    24   11   20 1
    25   11   12 ar
    26   12   13 ar
    27   12   16 1
    28   13   14 ar
    29   13   33 1
    30   14   15 1
    31   15   34 1
    32   15   35 1
    33   16   17 am
    34   16   36 1
    35   17   18 2
    36   17   19 1
    37   19   20 1
    38   19   37 1
    39   19   38 1
    40   20   39 1
    41   20   40 1
@<TRIPOS>MOLECULE
ZINC50321662
   43    44     0     0     0
SMALL
USER_CHARGES

@<TRIPOS>ATOM
      1 C1         -0.0187    1.5258    0.0104 C.3       1 <0>        -0.1485
      2 C2          0.0021   -0.0041    0.0020 C.3       1 <0>        -0.0116
      3 C3          0.7421   -0.5109    1.2415 C.3       1 <0>        -0.1486
      4 C4         -1.4117   -0.5257    0.0127 C.2       1 <0>        -0.0717
      5 C5         -1.9881   -1.3176   -0.9301 C.2       1 <0>         0.1613
      6 C6         -3.3147   -1.5379   -0.4782 C.2       1 <0>        -0.0682
      7 N1         -3.4477   -0.8898    0.6636 N.2       1 <0>        -0.2377
      8 N2         -2.3494   -0.2982    0.9695 N.pl3     1 <0>        -0.3613
      9 H1         -2.2101    0.2359    1.7672 H         1 <0>         0.4458
     10 C7         -4.3500   -2.3392   -1.1569 C.2       1 <0>         0.6137
     11 O1         -4.0988   -2.8892   -2.2119 O.2       1 <0>        -0.5380
     12 N3         -5.5747   -2.4621   -0.6077 N.am      1 <0>        -0.7070
     13 C8         -6.6033   -3.2582   -1.2819 C.3       1 <0>         0.1791
     14 C9         -6.1171   -4.7015   -1.4276 C.3       1 <0>        -0.1304
     15 C10        -5.8435   -5.2899   -0.0420 C.3       1 <0>        -0.1170
     16 C11        -7.1304   -5.2662    0.7852 C.3       1 <0>        -0.1200
     17 C12        -7.6166   -3.8229    0.9309 C.3       1 <0>        -0.1211
     18 C13        -7.8902   -3.2346   -0.4547 C.3       1 <0>        -0.1221
     19 C14        -6.8768   -2.6699   -2.6676 C.3       1 <0>        -0.1652
     20 N4         -1.3963   -1.8122   -2.1016 N.pl3     1 <0>        -0.8539
     21 H2          1.0039    1.9031    0.0027 H         1 <0>         0.0642
     22 H3         -0.5459    1.8868   -0.8726 H         1 <0>         0.0594
     23 H4         -0.5289    1.8773    0.9072 H         1 <0>         0.0523
     24 H5          0.5123   -0.3556   -0.8948 H         1 <0>         0.0879
     25 H6          0.2319   -0.1594    2.1383 H         1 <0>         0.0523
     26 H7          0.7568   -1.6008    1.2356 H         1 <0>         0.0594
     27 H8          1.7647   -0.1336    1.2338 H         1 <0>         0.0642
     28 H9         -5.7751   -2.0234    0.2339 H         1 <0>         0.4043
     29 H10        -6.8823   -5.2938   -1.9292 H         1 <0>         0.0687
     30 H11        -5.2002   -4.7184   -2.0169 H         1 <0>         0.0857
     31 H12        -5.4971   -6.3181   -0.1458 H         1 <0>         0.0602
     32 H13        -5.0783   -4.6975    0.4596 H         1 <0>         0.0598
     33 H14        -7.8957   -5.8585    0.2836 H         1 <0>         0.0622
     34 H15        -6.9356   -5.6854    1.7724 H         1 <0>         0.0605
     35 H16        -8.5335   -3.8061    1.5202 H         1 <0>         0.0653
     36 H17        -6.8514   -3.2306    1.4325 H         1 <0>         0.0617
     37 H18        -8.2366   -2.2063   -0.3510 H         1 <0>         0.0690
     38 H19        -8.6554   -3.8269   -0.9564 H         1 <0>         0.0800
     39 H20        -5.9600   -2.6867   -3.2569 H         1 <0>         0.0795
     40 H21        -7.6421   -3.2622   -3.1692 H         1 <0>         0.0633
     41 H22        -7.2232   -1.6416   -2.5638 H         1 <0>         0.0542
     42 H23        -0.4742   -1.5937   -2.3087 H         1 <0>         0.3958
     43 H24        -1.9092   -2.3727   -2.7047 H         1 <0>         0.4126
@<TRIPOS>BOND
     1    1    2 1
     2    1   21 1
     3    1   22 1
     4    1   23 1
     5    2    3 1
     6    2    4 1
     7    2   24 1
     8    3   25 1
     9    3   26 1
    10    3   27 1
    11    4    8 1
    12    4    5 2
    13    5    6 1
    14    5   20 1
    15    6    7 2
    16    6   10 1
    17    7    8 1
    18    8    9 1
    19   10   11 2
    20   10   12 am
    21   12   13 1
    22   12   28 1
    23   13   18 1
    24   13   14 1
    25   13   19 1
    26   14   15 1
    27   14   29 1
    28   14   30 1
    29   15   16 1
    30   15   31 1
    31   15   32 1
    32   16   17 1
    33   16   33 1
    34   16   34 1
    35   17   18 1
    36   17   35 1
    37   17   36 1
    38   18   37 1
    39   18   38 1
    40   19   39 1
    41   19   40 1
    42   19   41 1
    43   20   42 1
    44   20   43 1
@<TRIPOS>MOLECULE
ZINC62719210
   41    43     0     0     0
SMALL
USER_CHARGES

@<TRIPOS>ATOM
      1 C1         -0.0184    1.5028    0.0103 C.3       1 <0>        -0.1165
      2 C2          0.0021   -0.0041    0.0020 C.ar      1 <0>        -0.0403
      3 C3          0.0057   -0.6882   -1.2000 C.ar      1 <0>        -0.1800
      4 C4          0.0240   -2.0707   -1.2121 C.ar      1 <0>        -0.0692
      5 C5          0.0391   -2.7732   -0.0230 C.ar      1 <0>        -0.2028
      6 C6          0.0360   -2.0893    1.1859 C.ar      1 <0>         0.2202
      7 C7          0.0228   -0.7000    1.1944 C.ar      1 <0>        -0.1961
      8 N1          0.0513   -2.7965    2.3902 N.pl3     1 <0>        -0.7481
      9 C8          0.0706   -4.2614    2.3793 C.3       1 <0>         0.1352
     10 C9          0.0846   -4.7820    3.8179 C.3       1 <0>        -0.0355
     11 C10         0.1045   -6.2888    3.8067 C.2       1 <0>         0.2340
     12 N2         -0.9697   -7.0735    3.8010 N.2       1 <0>        -0.5329
     13 C11        -0.5975   -8.3379    3.7915 C.2       1 <0>         0.3472
     14 N3          0.7552   -8.3703    3.7911 N.pl3     1 <0>        -0.4818
     15 H1          1.3184   -9.1600    3.7849 H         1 <0>         0.4406
     16 N4          1.1804   -7.0319    3.7954 N.2       1 <0>        -0.3089
     17 C12        -1.4973   -9.5112    3.7828 C.ar      1 <0>        -0.1061
     18 C13        -2.8817   -9.3308    3.7786 C.ar      1 <0>        -0.0097
     19 C14        -3.7177  -10.4258    3.7705 C.ar      1 <0>        -0.2020
     20 C15        -3.1837  -11.7100    3.7667 C.ar      1 <0>         0.2416
     21 C16        -1.8050  -11.8927    3.7710 C.ar      1 <0>        -0.1998
     22 C17        -0.9642  -10.8014    3.7732 C.ar      1 <0>        -0.0428
     23 N5         -4.0322  -12.8163    3.7591 N.pl3     1 <0>        -0.8691
     24 H2          1.0042    1.8801    0.0026 H         1 <0>         0.0707
     25 H3         -0.5455    1.8639   -0.8728 H         1 <0>         0.0667
     26 H4         -0.5286    1.8543    0.9071 H         1 <0>         0.0652
     27 H5         -0.0061   -0.1414   -2.1312 H         1 <0>         0.1169
     28 H6          0.0260   -2.6019   -2.1525 H         1 <0>         0.1194
     29 H7          0.0530   -3.8531   -0.0331 H         1 <0>         0.1177
     30 H8          0.0245   -0.1651    2.1327 H         1 <0>         0.1189
     31 H9          0.0491   -2.3178    3.2339 H         1 <0>         0.4002
     32 H10        -0.8170   -4.6327    1.8672 H         1 <0>         0.0663
     33 H11         0.9628   -4.6091    1.8584 H         1 <0>         0.0626
     34 H12         0.9722   -4.4107    4.3301 H         1 <0>         0.0945
     35 H13        -0.8075   -4.4343    4.3388 H         1 <0>         0.0997
     36 H14        -3.2968   -8.3338    3.7819 H         1 <0>         0.1398
     37 H15        -4.7887  -10.2868    3.7676 H         1 <0>         0.1303
     38 H16        -1.3931  -12.8911    3.7683 H         1 <0>         0.1289
     39 H17         0.1064  -10.9438    3.7719 H         1 <0>         0.1210
     40 H18        -4.9940  -12.6899    3.7564 H         1 <0>         0.4025
     41 H19        -3.6608  -13.7124    3.7564 H         1 <0>         0.4017
@<TRIPOS>BOND
     1    1    2 1
     2    1   24 1
     3    1   25 1
     4    1   26 1
     5    2    7 ar
     6    2    3 ar
     7    3    4 ar
     8    3   27 1
     9    4    5 ar
    10    4   28 1
    11    5    6 ar
    12    5   29 1
    13    6    7 ar
    14    6    8 1
    15    7   30 1
    16    8    9 1
    17    8   31 1
    18    9   10 1
    19    9   32 1
    20    9   33 1
    21   10   11 1
    22   10   34 1
    23   10   35 1
    24   11   16 2
    25   11   12 1
    26   12   13 2
    27   13   14 1
    28   13   17 1
    29   14   15 1
    30   14   16 1
    31   17   22 ar
    32   17   18 ar
    33   18   19 ar
    34   18   36 1
    35   19   20 ar
    36   19   37 1
    37   20   21 ar
    38   20   23 1
    39   21   22 ar
    40   21   38 1
    41   22   39 1
    42   23   40 1
    43   23   41 1
@<TRIPOS>MOLECULE
ZINC09970306
   54    55     0     0     0
SMALL
USER_CHARGES
[3,4,5-trihydroxy-2,3,4,5,6-pentamethyl-6-(4-nitrophenoxy)-tetrahydropyran-2-yl]methoxyphosphonic acid
@<TRIPOS>ATOM
      1 C1         -1.3254   -2.5418   -2.6011 C.3       1 <0>        -0.1684
      2 C2         -1.2813   -1.0119   -2.5007 C.3       1 <0>         0.1183
      3 C3         -2.1484   -0.5474   -1.3353 C.3       1 <0>         0.1248
      4 C4         -1.4282   -0.6449    0.0021 C.3       1 <0>         0.1772
      5 C5         -0.0396   -0.0228   -0.0334 C.3       1 <0>         0.1085
      6 C6          0.7793   -0.4866   -1.2321 C.3       1 <0>         0.2749
      7 O1          0.0424   -0.5431   -2.4272 O.3       1 <0>        -0.3574
      8 C7          1.4402   -1.8347   -0.9188 C.3       1 <0>        -0.2066
      9 O2          1.8498    0.4699   -1.4167 O.3       1 <0>        -0.3022
     10 C8          2.6738    0.2761   -2.4799 C.ar      1 <0>         0.1885
     11 C9          3.7744    1.1002   -2.6652 C.ar      1 <0>        -0.1618
     12 C10         4.6132    0.8982   -3.7441 C.ar      1 <0>        -0.0272
     13 C11         4.3507   -0.1176   -4.6446 C.ar      1 <0>        -0.0847
     14 C12         3.2515   -0.9370   -4.4650 C.ar      1 <0>        -0.0081
     15 C13         2.4126   -0.7424   -3.3848 C.ar      1 <0>        -0.1741
     16 N1          5.2475   -0.3280   -5.8030 N.pl3     1 <0>         0.0404
     17 O3          5.0171   -1.2223   -6.5972 O.2       1 <0>        -0.1585
     18 O4          6.2161    0.3932   -5.9622 O.3       1 <0>        -0.1877
     19 C14        -0.1419    1.5070   -0.0433 C.3       1 <0>        -0.1751
     20 O5          0.6605   -0.4072    1.1658 O.3       1 <0>        -0.5585
     21 C15        -2.2668    0.0990    1.0606 C.3       1 <0>        -0.1708
     22 O6         -1.3379   -2.0162    0.4097 O.3       1 <0>        -0.5424
     23 C16        -3.4053   -1.4358   -1.2811 C.3       1 <0>        -0.1771
     24 O7         -2.5758    0.8001   -1.5702 O.3       1 <0>        -0.5579
     25 C17        -1.9131   -0.4558   -3.7983 C.3       1 <0>         0.1347
     26 O8         -1.2013   -0.9615   -4.9295 O.3       1 <0>        -0.7411
     27 P1         -1.5873   -0.5878   -6.4472 P.3       1 <0>         2.1297
     28 O9         -3.0106   -0.9137   -6.6887 O.2       1 <0>        -1.1664
     29 H1         -2.3532   -2.8657   -2.7643 H         1 <0>         0.0714
     30 H2         -0.7045   -2.8692   -3.4350 H         1 <0>         0.0802
     31 H3         -0.9497   -2.9776   -1.6753 H         1 <0>         0.0610
     32 H4          0.6700   -2.5936   -0.7813 H         1 <0>         0.0922
     33 H5          2.0897   -2.1218   -1.7457 H         1 <0>         0.0763
     34 H6          2.0305   -1.7467   -0.0067 H         1 <0>         0.0759
     35 H7          3.9775    1.8964   -1.9644 H         1 <0>         0.1466
     36 H8          5.4721    1.5371   -3.8868 H         1 <0>         0.1525
     37 H9          3.0484   -1.7296   -5.1700 H         1 <0>         0.1598
     38 H10         1.5540   -1.3825   -3.2452 H         1 <0>         0.1793
     39 H11         0.8591    1.9382   -0.0340 H         1 <0>         0.0671
     40 H12        -0.6684    1.8301   -0.9413 H         1 <0>         0.0909
     41 H13        -0.6893    1.8402    0.8385 H         1 <0>         0.0677
     42 H14         1.5546   -0.0451    1.2325 H         1 <0>         0.3826
     43 H15        -2.3370    1.1534    0.7931 H         1 <0>         0.0815
     44 H16        -3.2668   -0.3328    1.1011 H         1 <0>         0.0662
     45 H17        -1.7896    0.0025    2.0358 H         1 <0>         0.0602
     46 H18        -0.9509   -2.1411    1.2870 H         1 <0>         0.3828
     47 H19        -4.0599   -1.0908   -0.4806 H         1 <0>         0.0632
     48 H20        -3.9332   -1.3770   -2.2329 H         1 <0>         0.0706
     49 H21        -3.1125   -2.4684   -1.0913 H         1 <0>         0.0847
     50 H22        -3.0415    0.9245   -2.4085 H         1 <0>         0.3951
     51 H23        -2.9562   -0.7667   -3.8567 H         1 <0>         0.0519
     52 H24        -1.8583    0.6328   -3.7915 H         1 <0>         0.0433
     53 O10        -1.3484    0.9857   -6.6899 O.3       1 <0>        -1.1989
     54 O11        -0.6639   -1.4332   -7.4595 O.3       1 <0>        -1.1751
@<TRIPOS>BOND
     1    1    2 1
     2    1   29 1
     3    1   30 1
     4    1   31 1
     5    2    7 1
     6    2    3 1
     7    2   25 1
     8    3    4 1
     9    3   23 1
    10    3   24 1
    11    4    5 1
    12    4   21 1
    13    4   22 1
    14    5    6 1
    15    5   19 1
    16    5   20 1
    17    6    7 1
    18    6    8 1
    19    6    9 1
    20    8   32 1
    21    8   33 1
    22    8   34 1
    23    9   10 1
    24   10   15 ar
    25   10   11 ar
    26   11   12 ar
    27   11   35 1
    28   12   13 ar
    29   12   36 1
    30   13   14 ar
    31   13   16 1
    32   14   15 ar
    33   14   37 1
    34   15   38 1
    35   16   17 2
    36   16   18 1
    37   19   39 1
    38   19   40 1
    39   19   41 1
    40   20   42 1
    41   21   43 1
    42   21   44 1
    43   21   45 1
    44   22   46 1
    45   23   47 1
    46   23   48 1
    47   23   49 1
    48   24   50 1
    49   25   26 1
    50   25   51 1
    51   25   52 1
    52   26   27 1
    53   27   28 2
    54   27   53 1
    55   27   54 1
@<TRIPOS>MOLECULE
ZINC27933453
   46    48     0     0     0
SMALL
USER_CHARGES
3-(3-acetylphenyl)-1-[4-[(5-methylisoxazol-3-yl)sulfamoyl]phenyl]urea
@<TRIPOS>ATOM
      1 C1         -1.2289   -0.8231    0.0078 C.3       1 <0>        -0.0636
      2 C2         -0.0195    0.0760    0.0011 C.2       1 <0>        -0.0591
      3 C3         -0.0182    1.4281    0.0076 C.2       1 <0>        -0.2450
      4 C4          1.3611    1.7695   -0.0033 C.2       1 <0>         0.3149
      5 N1          2.0168    0.6380   -0.0147 N.2       1 <0>        -0.4744
      6 O1          1.2649   -0.3089   -0.0124 O.3       1 <0>         0.0544
      7 N2          1.9046    3.0499   -0.0025 N.2       1 <0>        -1.0168
      8 S1          3.5482    3.2517   -0.0164 S.o2      1 <0>         2.6022
      9 O2          3.7852    4.6526   -0.0394 O.2       1 <0>        -0.9995
     10 O3          4.0697    2.4074    1.0007 O.2       1 <0>        -1.0254
     11 C5          4.1382    2.6160   -1.5502 C.ar      1 <0>        -0.6666
     12 C6          4.5114    1.2881   -1.6488 C.ar      1 <0>         0.0078
     13 C7          4.9697    0.7856   -2.8508 C.ar      1 <0>        -0.1735
     14 C8          5.0654    1.6178   -3.9584 C.ar      1 <0>         0.1883
     15 C9          4.6948    2.9521   -3.8547 C.ar      1 <0>        -0.1502
     16 C10         4.2323    3.4473   -2.6512 C.ar      1 <0>        -0.0109
     17 N3          5.5340    1.1129   -5.1765 N.am      1 <0>        -0.6904
     18 C11         5.0226    1.5699   -6.3367 C.2       1 <0>         0.7036
     19 O4          4.2156    2.4793   -6.3291 O.2       1 <0>        -0.5516
     20 N4          5.4058    1.0188   -7.5054 N.am      1 <0>        -0.6980
     21 C12         4.9499    1.5554   -8.7151 C.ar      1 <0>         0.1606
     22 C13         5.7827    1.5662   -9.8282 C.ar      1 <0>        -0.1192
     23 C14         5.3366    2.0896  -11.0276 C.ar      1 <0>        -0.1143
     24 C15         4.0652    2.6157  -11.1262 C.ar      1 <0>        -0.0942
     25 C16         3.2207    2.6155  -10.0115 C.ar      1 <0>        -0.1529
     26 C17         3.6710    2.0808   -8.8010 C.ar      1 <0>        -0.0659
     27 C18         1.8637    3.1763  -10.1123 C.2       1 <0>         0.3882
     28 O5          1.1337    3.1752   -9.1440 O.2       1 <0>        -0.4450
     29 C19         1.3814    3.7520  -11.4188 C.3       1 <0>        -0.2001
     30 H1         -2.1418   -0.2096    0.0190 H         1 <0>         0.0805
     31 H2         -1.2056   -1.4623    0.9027 H         1 <0>         0.0730
     32 H3         -1.2220   -1.4537   -0.8935 H         1 <0>         0.0721
     33 H4         -0.8684    2.0941    0.0147 H         1 <0>         0.1517
     34 H5          4.4406    0.6424   -0.7860 H         1 <0>         0.1448
     35 H6          5.2569   -0.2527   -2.9284 H         1 <0>         0.1234
     36 H7          4.7684    3.6020   -4.7141 H         1 <0>         0.1376
     37 H8          3.9435    4.4848   -2.5699 H         1 <0>         0.1347
     38 H9          6.3197    0.3431   -5.1870 H         1 <0>         0.4276
     39 H10         6.0769    0.1472   -7.5086 H         1 <0>         0.4303
     40 H11         6.7810    1.1602   -9.7569 H         1 <0>         0.1294
     41 H12         5.9876    2.0909  -11.8893 H         1 <0>         0.1319
     42 H13         3.7223    3.0280  -12.0637 H         1 <0>         0.1322
     43 H14         3.0242    2.0769   -7.9362 H         1 <0>         0.1535
     44 H15         0.3515    4.1196  -11.2995 H         1 <0>         0.0859
     45 H16         1.4048    2.9720  -12.1941 H         1 <0>         0.0936
     46 H17         2.0358    4.5846  -11.7164 H         1 <0>         0.0941
@<TRIPOS>BOND
     1    1    2 1
     2    1   30 1
     3    1   31 1
     4    1   32 1
     5    2    6 1
     6    2    3 2
     7    3    4 1
     8    3   33 1
     9    4    5 2
    10    4    7 1
    11    5    6 1
    12    7    8 1
    13    8    9 2
    14    8   10 2
    15    8   11 1
    16   11   16 ar
    17   11   12 ar
    18   12   13 ar
    19   12   34 1
    20   13   14 ar
    21   13   35 1
    22   14   15 ar
    23   14   17 1
    24   15   16 ar
    25   15   36 1
    26   16   37 1
    27   17   18 am
    28   17   38 1
    29   18   19 2
    30   18   20 am
    31   20   21 1
    32   20   39 1
    33   21   26 ar
    34   21   22 ar
    35   22   23 ar
    36   22   40 1
    37   23   24 ar
    38   23   41 1
    39   24   25 ar
    40   24   42 1
    41   25   26 ar
    42   25   27 1
    43   26   43 1
    44   27   28 2
    45   27   29 1
    46   29   44 1
    47   29   45 1
    48   29   46 1
@<TRIPOS>MOLECULE
ZINC38702028
   55    59     0     0     0
SMALL
USER_CHARGES

@<TRIPOS>ATOM
      1 C1         -0.0187    1.5258    0.0104 C.3       1 <0>        -0.1480
      2 C2          0.0021   -0.0041    0.0020 C.3       1 <0>         0.0529
      3 O1          0.6709   -0.4649   -1.1737 O.3       1 <0>        -0.3097
      4 C3          0.7768   -1.8109   -1.3363 C.ar      1 <0>         0.1223
      5 C4          0.2435   -2.6690   -0.3879 C.ar      1 <0>        -0.1492
      6 C5          0.3516   -4.0370   -0.5549 C.ar      1 <0>        -0.0340
      7 C6          0.9916   -4.5523   -1.6668 C.ar      1 <0>        -0.1091
      8 C7          1.5263   -3.7019   -2.6164 C.ar      1 <0>        -0.1039
      9 C8          1.4160   -2.3297   -2.4582 C.ar      1 <0>         0.0798
     10 O2          1.9361   -1.4917   -3.3945 O.3       1 <0>        -0.4872
     11 C9         -0.2290   -4.9686    0.4775 C.3       1 <0>         0.2645
     12 H1         -0.3807   -4.4376    1.4173 H         1 <0>         0.0988
     13 C10        -1.5340   -5.5341   -0.0127 C.2       1 <0>        -0.2038
     14 C11        -2.8065   -5.2949   -0.4230 C.2       1 <0>         0.1941
     15 N1         -3.3592   -6.5095   -0.7134 N.pl3     1 <0>        -0.3867
     16 N2         -2.5010   -7.4431   -0.5025 N.2       1 <0>        -0.2264
     17 H2         -4.2651   -6.6473   -1.0315 H         1 <0>         0.4472
     18 C12        -1.3625   -6.9356   -0.0739 C.2       1 <0>        -0.0522
     19 C13         0.0107   -7.2430    0.3651 C.2       1 <0>         0.6199
     20 O3          0.4840   -8.3609    0.4301 O.2       1 <0>        -0.5211
     21 N3          0.6665   -6.1128    0.6842 N.am      1 <0>        -0.5912
     22 C14         2.0500   -6.0354    1.1597 C.3       1 <0>         0.1730
     23 H3          2.3239   -4.9938    1.3273 H         1 <0>         0.1211
     24 C15         2.9930   -6.6590    0.1173 C.3       1 <0>        -0.1506
     25 C16         4.3955   -6.8735    0.7359 C.3       1 <0>        -0.5688
     26 S1          4.0190   -7.0984    2.5220 S.o2      1 <0>         2.3726
     27 O4          4.2850   -8.4465    2.8843 O.2       1 <0>        -0.9340
     28 O5          4.6238   -6.0442    3.2582 O.2       1 <0>        -0.9358
     29 C17         2.1958   -6.8367    2.4848 C.3       1 <0>        -0.5969
     30 C18        -3.4659   -3.9751   -0.5334 C.ar      1 <0>        -0.2215
     31 C19        -4.5499   -3.6628    0.2865 C.ar      1 <0>        -0.0278
     32 C20        -5.1610   -2.4293    0.1793 C.ar      1 <0>        -0.1736
     33 C21        -4.7015   -1.5010   -0.7401 C.ar      1 <0>        -0.0477
     34 C22        -3.6279   -1.8007   -1.5572 C.ar      1 <0>        -0.2488
     35 C23        -3.0012   -3.0321   -1.4569 C.ar      1 <0>         0.3048
     36 O6         -1.9423   -3.3252   -2.2561 O.3       1 <0>        -0.6635
     37 Cl1        -6.5104   -2.0409    1.2001 Cl        1 <0>        -0.1248
     38 H4          1.0039    1.9031    0.0027 H         1 <0>         0.0611
     39 H5         -0.5459    1.8868   -0.8726 H         1 <0>         0.0655
     40 H6         -0.5289    1.8773    0.9072 H         1 <0>         0.0746
     41 H7          0.5293   -0.3651    0.8851 H         1 <0>         0.0552
     42 H8         -1.0205   -0.3814    0.0098 H         1 <0>         0.0671
     43 H9         -0.2563   -2.2690    0.4819 H         1 <0>         0.1222
     44 H10         1.0743   -5.6217   -1.7935 H         1 <0>         0.1127
     45 H11         2.0261   -4.1070   -3.4839 H         1 <0>         0.1244
     46 H12         2.8557   -1.2414   -3.2309 H         1 <0>         0.3743
     47 H13         2.5900   -7.6185   -0.2070 H         1 <0>         0.1053
     48 H14         3.0743   -5.9929   -0.7416 H         1 <0>         0.1064
     49 H15         4.8668   -7.7662    0.3248 H         1 <0>         0.1446
     50 H16         5.0244   -5.9968    0.5809 H         1 <0>         0.1416
     51 H17         1.8648   -6.2476    3.3401 H         1 <0>         0.1470
     52 H18         1.6622   -7.7857    2.4323 H         1 <0>         0.1537
     53 H19        -4.9110   -4.3848    1.0039 H         1 <0>         0.1014
     54 H20        -5.1846   -0.5383   -0.8191 H         1 <0>         0.1026
     55 H21        -3.2745   -1.0724   -2.2721 H         1 <0>         0.1060
@<TRIPOS>BOND
     1    1    2 1
     2    1   38 1
     3    1   39 1
     4    1   40 1
     5    2    3 1
     6    2   41 1
     7    2   42 1
     8    3    4 1
     9    4    9 ar
    10    4    5 ar
    11    5    6 ar
    12    5   43 1
    13    6    7 ar
    14    6   11 1
    15    7    8 ar
    16    7   44 1
    17    8    9 ar
    18    8   45 1
    19    9   10 1
    20   10   46 1
    21   11   12 1
    22   11   21 1
    23   11   13 1
    24   13   18 1
    25   13   14 2
    26   14   30 1
    27   14   15 1
    28   15   17 1
    29   15   16 1
    30   16   18 2
    31   18   19 1
    32   19   20 2
    33   19   21 am
    34   21   22 1
    35   22   23 1
    36   22   29 1
    37   22   24 1
    38   24   25 1
    39   24   47 1
    40   24   48 1
    41   25   26 1
    42   25   49 1
    43   25   50 1
    44   26   27 2
    45   26   28 2
    46   26   29 1
    47   29   51 1
    48   29   52 1
    49   30   35 ar
    50   30   31 ar
    51   31   32 ar
    52   31   53 1
    53   32   33 ar
    54   32   37 1
    55   33   34 ar
    56   33   54 1
    57   34   35 ar
    58   34   55 1
    59   35   36 1
@<TRIPOS>MOLECULE
ZINC50672612
   31    32     0     0     0
SMALL
USER_CHARGES

@<TRIPOS>ATOM
      1 C1          0.3063    1.6943   -0.2923 C.3       1 <0>        -0.1559
      2 C2          0.2503    0.1748   -0.1223 C.3       1 <0>         0.2675
      3 H1         -0.7858   -0.1383    0.0070 H         1 <0>         0.0973
      4 C3          1.0508   -0.2248    1.0903 C.2       1 <0>         0.0467
      5 N1          0.5694   -0.6021    2.2658 N.2       1 <0>        -0.3758
      6 N2          1.5728   -0.8596    3.0334 N.2       1 <0>        -0.1924
      7 N3          2.6636   -0.6568    2.3801 N.2       1 <0>        -0.1937
      8 N4          2.3717   -0.2721    1.1846 N.2       1 <0>        -0.3780
      9 N5          0.8108   -0.4706   -1.3120 N.pl3     1 <0>        -1.1012
     10 S1         -0.1934   -0.9981   -2.5185 S.o2      1 <0>         2.6966
     11 O1          0.6403   -1.5474   -3.5297 O.2       1 <0>        -0.9609
     12 O2         -1.2241   -1.7479   -1.8903 O.2       1 <0>        -0.9488
     13 C4         -0.9609    0.4258   -3.2172 C.ar      1 <0>        -0.7889
     14 C5         -2.3297    0.6024   -3.1217 C.ar      1 <0>         0.0986
     15 C6         -2.8923    1.7397   -3.6870 C.ar      1 <0>        -0.2304
     16 C7         -2.0748    2.6538   -4.3231 C.ar      1 <0>         0.2368
     17 N6         -0.7721    2.4584   -4.3990 N.ar      1 <0>        -0.5375
     18 C8         -0.1980    1.3902   -3.8673 C.ar      1 <0>         0.5031
     19 N7          1.1795    1.2280   -3.9650 N.pl3     1 <0>        -0.7097
     20 C9          1.9754    2.1782   -4.7460 C.3       1 <0>         0.0946
     21 Br1        -4.7577    2.0333   -3.5875 Br        1 <0>        -0.0338
     22 H2          1.3423    2.0075   -0.4215 H         1 <0>         0.0662
     23 H3         -0.2728    1.9834   -1.1694 H         1 <0>         0.0484
     24 H4         -0.1108    2.1746    0.5929 H         1 <0>         0.0694
     25 H5          1.7701   -0.5891   -1.3930 H         1 <0>         0.4236
     26 H6         -2.9469   -0.1276   -2.6192 H         1 <0>         0.1630
     27 H7         -2.5076    3.5396   -4.7641 H         1 <0>         0.1716
     28 H8          1.6136    0.4857   -3.5161 H         1 <0>         0.4125
     29 H9          1.6354    2.1720   -5.7816 H         1 <0>         0.0633
     30 H10         1.8568    3.1790   -4.3307 H         1 <0>         0.0671
     31 H11         3.0260    1.8907   -4.7068 H         1 <0>         0.0805
@<TRIPOS>BOND
     1    1    2 1
     2    1   22 1
     3    1   23 1
     4    1   24 1
     5    2    3 1
     6    2    9 1
     7    2    4 1
     8    4    5 2
     9    4    8 1
    10    5    6 1
    11    6    7 2
    12    7    8 1
    13    9   10 1
    14    9   25 1
    15   10   11 2
    16   10   12 2
    17   10   13 1
    18   13   18 ar
    19   13   14 ar
    20   14   15 ar
    21   14   26 1
    22   15   16 ar
    23   15   21 1
    24   16   17 ar
    25   16   27 1
    26   17   18 ar
    27   18   19 1
    28   19   20 1
    29   19   28 1
    30   20   29 1
    31   20   30 1
    32   20   31 1
@<TRIPOS>MOLECULE
ZINC63911575
   33    34     0     0     0
SMALL
USER_CHARGES

@<TRIPOS>ATOM
      1 C1         -0.0184    1.5028    0.0103 C.3       1 <0>        -0.1510
      2 C2          0.0021   -0.0041    0.0020 C.ar      1 <0>        -0.0950
      3 C3          0.0057   -0.6874   -1.2004 C.ar      1 <0>        -0.0795
      4 C4          0.0244   -2.0681   -1.2116 C.ar      1 <0>        -0.2082
      5 C5          0.0396   -2.7708   -0.0132 C.ar      1 <0>         0.2567
      6 C6          0.0359   -2.0814    1.1925 C.ar      1 <0>        -0.0700
      7 C7          0.0229   -0.7002    1.1965 C.ar      1 <0>        -0.6236
      8 S1          0.0254    0.1755    2.7254 S.o2      1 <0>         2.7017
      9 O1         -1.0142    1.1407    2.6424 O.2       1 <0>        -0.9719
     10 O2          0.0756   -0.8035    3.7541 O.2       1 <0>        -0.9719
     11 N1          1.4486    1.0185    2.8045 N.pl3     1 <0>        -1.2512
     12 N2          0.0581   -4.1674   -0.0209 N.2       1 <0>        -1.0787
     13 S2          0.0619   -4.9875   -1.4596 S.o2      1 <0>         2.6192
     14 O3         -1.1901   -4.7266   -2.0791 O.2       1 <0>        -1.0043
     15 O4          1.3004   -4.6936   -2.0913 O.2       1 <0>        -1.0086
     16 C8          0.0866   -6.7076   -1.0786 C.2       1 <0>        -0.6248
     17 C9         -0.9543   -7.5561   -0.8943 C.2       1 <0>        -0.0637
     18 C10        -0.6947   -8.8815   -0.5999 C.2       1 <0>        -0.0686
     19 C11         0.5930   -9.2936   -0.5042 C.2       1 <0>        -0.1683
     20 S3          1.4890   -7.7869   -0.8429 S.3       1 <0>         0.3069
     21 N3          1.1199  -10.6438   -0.2028 N.pl3     1 <0>         0.0804
     22 O5          0.3565  -11.5595   -0.0019 O.2       1 <0>        -0.1395
     23 O6          2.3135  -10.8307   -0.1574 O.3       1 <0>        -0.1436
     24 H1          1.0042    1.8801    0.0026 H         1 <0>         0.0648
     25 H2         -0.5455    1.8639   -0.8728 H         1 <0>         0.0705
     26 H3         -0.5286    1.8543    0.9071 H         1 <0>         0.0942
     27 H4         -0.0065   -0.1406   -2.1317 H         1 <0>         0.1161
     28 H5          0.0269   -2.6011   -2.1509 H         1 <0>         0.1059
     29 H6          0.0473   -2.6246    2.1259 H         1 <0>         0.1397
     30 H7          2.0876    0.9607    2.0770 H         1 <0>         0.4171
     31 H8          1.6433    1.5701    3.5783 H         1 <0>         0.4154
     32 H9         -1.9713   -7.2018   -0.9758 H         1 <0>         0.1695
     33 H10        -1.5058   -9.5782   -0.4480 H         1 <0>         0.1646
@<TRIPOS>BOND
     1    1    2 1
     2    1   24 1
     3    1   25 1
     4    1   26 1
     5    2    7 ar
     6    2    3 ar
     7    3    4 ar
     8    3   27 1
     9    4    5 ar
    10    4   28 1
    11    5    6 ar
    12    5   12 1
    13    6    7 ar
    14    6   29 1
    15    7    8 1
    16    8    9 2
    17    8   10 2
    18    8   11 1
    19   11   30 1
    20   11   31 1
    21   12   13 1
    22   13   14 2
    23   13   15 2
    24   13   16 1
    25   16   20 1
    26   16   17 2
    27   17   18 1
    28   17   32 1
    29   18   19 2
    30   18   33 1
    31   19   20 1
    32   19   21 1
    33   21   22 2
    34   21   23 1
@<TRIPOS>MOLECULE
ZINC02776644
   43    46     0     0     0
SMALL
USER_CHARGES
N-(2-adamantyl)-4-bromo-1-methyl-5-(trifluoromethyl)pyrazole-3-carboxamide
@<TRIPOS>ATOM
      1 C1         -1.1874   -0.8592    0.0083 C.3       1 <0>         0.0594
      2 N1          0.0021   -0.0041    0.0020 N.pl3     1 <0>        -0.2398
      3 C2          1.2816   -0.4534   -0.0126 C.2       1 <0>        -0.0624
      4 C3          2.0870    0.6355   -0.0145 C.2       1 <0>        -0.0960
      5 C4          1.2159    1.7510   -0.0001 C.2       1 <0>         0.0123
      6 N2         -0.0153    1.2805    0.0091 N.2       1 <0>        -0.2126
      7 C5          1.6119    3.1737    0.0041 C.2       1 <0>         0.6001
      8 O1          2.7891    3.4771   -0.0060 O.2       1 <0>        -0.5028
      9 N3          0.6682    4.1358    0.0193 N.am      1 <0>        -0.7078
     10 C6          1.0609    5.5471    0.0235 C.3       1 <0>         0.1587
     11 C7          1.3333    5.9964    1.4605 C.3       1 <0>        -0.0960
     12 C8          1.7435    7.4704    1.4650 C.3       1 <0>        -0.1062
     13 C9          0.6147    8.3157    0.8716 C.3       1 <0>        -0.0888
     14 C10        -0.6520    8.1363    1.7108 C.3       1 <0>        -0.1081
     15 C11        -1.0622    6.6623    1.7063 C.3       1 <0>        -0.0868
     16 C12         0.0666    5.8170    2.2997 C.3       1 <0>        -0.1075
     17 C13        -1.3346    6.2131    0.2694 C.3       1 <0>        -0.1101
     18 C14        -0.0679    6.3925   -0.5698 C.3       1 <0>        -0.0928
     19 C15         0.3423    7.8664   -0.5654 C.3       1 <0>        -0.1050
     20 Br1         3.9777    0.6603   -0.0329 Br        1 <0>         0.0485
     21 C16         1.7241   -1.8939   -0.0241 C.3       1 <0>         0.5481
     22 F1          1.8483   -2.3331   -1.3466 F         1 <0>        -0.1587
     23 F2          2.9593   -2.0075    0.6229 F         1 <0>        -0.1470
     24 F3          0.7756   -2.6785    0.6406 F         1 <0>        -0.1683
     25 H1         -1.4921   -1.0655   -1.0177 H         1 <0>         0.1011
     26 H2         -0.9581   -1.7969    0.5147 H         1 <0>         0.1161
     27 H3         -1.9970   -0.3517    0.5327 H         1 <0>         0.1138
     28 H4         -0.2711    3.8937    0.0273 H         1 <0>         0.4049
     29 H5          1.9634    5.6749   -0.5743 H         1 <0>         0.0928
     30 H6          2.1375    5.3941    1.8832 H         1 <0>         0.0768
     31 H7          1.9375    7.7904    2.4887 H         1 <0>         0.0665
     32 H8          2.6459    7.5982    0.8671 H         1 <0>         0.0658
     33 H9          0.9069    9.3658    0.8748 H         1 <0>         0.0729
     34 H10        -1.4562    8.7385    1.2881 H         1 <0>         0.0623
     35 H11        -0.4580    8.4564    2.7345 H         1 <0>         0.0627
     36 H12        -1.9646    6.5345    2.3042 H         1 <0>         0.0703
     37 H13         0.2606    6.1370    3.3234 H         1 <0>         0.0635
     38 H14        -0.2256    4.7669    2.2965 H         1 <0>         0.0600
     39 H15        -2.1388    6.8153   -0.1534 H         1 <0>         0.0684
     40 H16        -1.6268    5.1630    0.2662 H         1 <0>         0.0592
     41 H17        -0.2619    6.0724   -1.5935 H         1 <0>         0.0772
     42 H18         1.2448    7.9942   -1.1632 H         1 <0>         0.0665
     43 H19        -0.4619    8.4687   -0.9881 H         1 <0>         0.0689
@<TRIPOS>BOND
     1    1    2 1
     2    1   25 1
     3    1   26 1
     4    1   27 1
     5    2    6 1
     6    2    3 1
     7    3    4 2
     8    3   21 1
     9    4    5 1
    10    4   20 1
    11    5    6 2
    12    5    7 1
    13    7    8 2
    14    7    9 am
    15    9   10 1
    16    9   28 1
    17   10   18 1
    18   10   11 1
    19   10   29 1
    20   11   16 1
    21   11   12 1
    22   11   30 1
    23   12   13 1
    24   12   31 1
    25   12   32 1
    26   13   19 1
    27   13   14 1
    28   13   33 1
    29   14   15 1
    30   14   34 1
    31   14   35 1
    32   15   16 1
    33   15   17 1
    34   15   36 1
    35   16   37 1
    36   16   38 1
    37   17   18 1
    38   17   39 1
    39   17   40 1
    40   18   19 1
    41   18   41 1
    42   19   42 1
    43   19   43 1
    44   21   22 1
    45   21   23 1
    46   21   24 1
@<TRIPOS>MOLECULE
ZINC12656206
   65    69     0     0     0
SMALL
USER_CHARGES
(5R,8S,9R,10S,13S,14R,17S)-17-hydroxy-10,13-dimethyl-17-[(1-methylimidazol-2-yl)sulfanylmethyl]-2,4,5,6,7,8,9,11,12,14,15,16-dodecahydro-1H-cyclopenta[a]phenanthren-3-one
@<TRIPOS>ATOM
      1 C1         -0.6349    3.1221    1.3259 C.3       1 <0>        -0.1496
      2 C2         -0.7073    1.5895    1.2707 C.3       1 <0>        -0.0468
      3 C3         -0.0127    1.0873    0.0080 C.3       1 <0>        -0.1076
      4 C4         -0.7089    1.5908   -1.2562 C.3       1 <0>        -0.1633
      5 C5         -2.1856    1.2814   -1.1659 C.2       1 <0>         0.3616
      6 O1         -2.7591    0.7037   -2.0571 O.2       1 <0>        -0.4576
      7 C6         -2.9224    1.7175    0.0820 C.3       1 <0>        -0.1602
      8 C7         -2.1746    1.1635    1.2972 C.3       1 <0>        -0.0686
      9 H1         -2.6424    1.5484    2.2073 H         1 <0>         0.0825
     10 C8         -2.2740   -0.3628    1.2944 C.3       1 <0>        -0.1209
     11 C9         -1.5890   -0.9070    2.5469 C.3       1 <0>        -0.1152
     12 C10        -0.1118   -0.5009    2.5429 C.3       1 <0>        -0.0764
     13 H2          0.3746   -0.9298    1.6679 H         1 <0>         0.0732
     14 C11         0.0132    1.0192    2.5006 C.3       1 <0>        -0.0643
     15 H3         -0.4124    1.4503    3.4066 H         1 <0>         0.0755
     16 C12         1.5053    1.3607    2.4155 C.3       1 <0>        -0.1209
     17 C13         2.2149    0.8625    3.6654 C.3       1 <0>        -0.1062
     18 C14         1.9925   -0.5919    3.9839 C.3       1 <0>        -0.0294
     19 C15         0.5412   -1.0600    3.8095 C.3       1 <0>        -0.0712
     20 H4         -0.0621   -0.8285    4.6973 H         1 <0>         0.0853
     21 C16         0.6807   -2.5950    3.6022 C.3       1 <0>        -0.1205
     22 C17         1.9684   -2.7280    2.7604 C.3       1 <0>        -0.1526
     23 C18         2.8869   -1.5798    3.2358 C.3       1 <0>         0.1595
     24 C19         3.6043   -0.9605    2.0411 C.3       1 <0>        -0.1179
     25 S1          4.5123   -2.2473    1.1492 S.3       1 <0>        -0.0321
     26 C20         5.2239   -1.2812   -0.1412 C.2       1 <0>         0.1883
     27 N1          5.0679    0.0114   -0.3080 N.2       1 <0>        -0.4843
     28 C21         5.7556    0.4056   -1.3929 C.2       1 <0>        -0.0177
     29 C22         6.3615   -0.6703   -1.9235 C.2       1 <0>        -0.0446
     30 N2          6.0336   -1.7474   -1.1310 N.pl3     1 <0>        -0.4487
     31 C23         6.4705   -3.1329   -1.3194 C.3       1 <0>         0.0698
     32 O2          3.8643   -2.1151    4.1443 O.3       1 <0>        -0.5492
     33 C24         2.3259   -0.7564    5.4897 C.3       1 <0>        -0.1307
     34 H5         -1.1302    3.5411    0.4500 H         1 <0>         0.0557
     35 H6         -1.1318    3.4770    2.2288 H         1 <0>         0.0582
     36 H7          0.4088    3.4364    1.3382 H         1 <0>         0.0620
     37 H8          0.0021   -0.0041    0.0020 H         1 <0>         0.0698
     38 H9          1.0227    1.4462    0.0001 H         1 <0>         0.0783
     39 H10        -0.5719    2.5777   -1.3416 H         1 <0>         0.0903
     40 H11        -0.2881    1.0795   -2.1277 H         1 <0>         0.0859
     41 H12        -2.9588    2.7163    0.1157 H         1 <0>         0.0914
     42 H13        -3.9343    1.3037    0.0639 H         1 <0>         0.0876
     43 H14        -3.3241   -0.6588    1.2953 H         1 <0>         0.0652
     44 H15        -1.7868   -0.7629    0.4062 H         1 <0>         0.0622
     45 H16        -1.6696   -1.9937    2.5596 H         1 <0>         0.0654
     46 H17        -2.0737   -0.4986    3.4341 H         1 <0>         0.0641
     47 H18         1.9303    0.9122    1.5208 H         1 <0>         0.0701
     48 H19         1.6383    2.4454    2.3514 H         1 <0>         0.0669
     49 H20         1.8366    1.4511    4.5202 H         1 <0>         0.0626
     50 H21         3.2809    1.0801    3.6006 H         1 <0>         0.0659
     51 H22         0.7895   -3.1093    4.5563 H         1 <0>         0.0687
     52 H23        -0.1735   -2.9926    3.0542 H         1 <0>         0.0725
     53 H24         1.7423   -2.6121    1.7026 H         1 <0>         0.0779
     54 H25         2.4441   -3.6888    2.9464 H         1 <0>         0.0742
     55 H26         2.8726   -0.5038    1.3747 H         1 <0>         0.1100
     56 H27         4.3020   -0.1995    2.3908 H         1 <0>         0.1029
     57 H28         5.8121    1.4147   -1.7734 H         1 <0>         0.1740
     58 H29         6.9891   -0.6863   -2.8022 H         1 <0>         0.1792
     59 H30         5.7559   -3.6560   -1.9548 H         1 <0>         0.0813
     60 H31         7.4526   -3.1431   -1.7922 H         1 <0>         0.0912
     61 H32         6.5282   -3.6306   -0.3513 H         1 <0>         0.0891
     62 H33         4.4699   -2.7516    3.7402 H         1 <0>         0.3707
     63 H34         2.2159   -1.8029    5.7740 H         1 <0>         0.0599
     64 H35         3.3518   -0.4364    5.6718 H         1 <0>         0.0597
     65 H36         1.6443   -0.1455    6.0816 H         1 <0>         0.0477
@<TRIPOS>BOND
     1    1    2 1
     2    1   34 1
     3    1   35 1
     4    1   36 1
     5    2    8 1
     6    2   14 1
     7    2    3 1
     8    3    4 1
     9    3   37 1
    10    3   38 1
    11    4    5 1
    12    4   39 1
    13    4   40 1
    14    5    6 2
    15    5    7 1
    16    7    8 1
    17    7   41 1
    18    7   42 1
    19    8    9 1
    20    8   10 1
    21   10   11 1
    22   10   43 1
    23   10   44 1
    24   11   12 1
    25   11   45 1
    26   11   46 1
    27   12   13 1
    28   12   19 1
    29   12   14 1
    30   14   15 1
    31   14   16 1
    32   16   17 1
    33   16   47 1
    34   16   48 1
    35   17   18 1
    36   17   49 1
    37   17   50 1
    38   18   23 1
    39   18   19 1
    40   18   33 1
    41   19   20 1
    42   19   21 1
    43   21   22 1
    44   21   51 1
    45   21   52 1
    46   22   23 1
    47   22   53 1
    48   22   54 1
    49   23   24 1
    50   23   32 1
    51   24   25 1
    52   24   55 1
    53   24   56 1
    54   25   26 1
    55   26   30 1
    56   26   27 2
    57   27   28 1
    58   28   29 2
    59   28   57 1
    60   29   30 1
    61   29   58 1
    62   30   31 1
    63   31   59 1
    64   31   60 1
    65   31   61 1
    66   32   62 1
    67   33   63 1
    68   33   64 1
    69   33   65 1
@<TRIPOS>MOLECULE
ZINC16545383
   26    28     0     0     0
SMALL
USER_CHARGES
N-[(4,5-dibromo-2-furyl)methyleneamino]-1,3-benzothiazol-2-amine
@<TRIPOS>ATOM
      1 C1          4.2557   11.1137    0.8690 C.ar      1 <0>        -0.1018
      2 C2          3.2353   12.0339    1.0612 C.ar      1 <0>        -0.1100
      3 C3          1.9207   11.6065    1.0174 C.ar      1 <0>        -0.0561
      4 C4          1.6462   10.2821    0.7850 C.ar      1 <0>        -0.1668
      5 C5          2.6592    9.3167    0.5848 C.ar      1 <0>         0.1171
      6 C6          3.9912    9.7893    0.6363 C.ar      1 <0>        -0.0774
      7 N1          2.2304    8.0548    0.3672 N.2       1 <0>        -0.5677
      8 C7          0.9551    7.7374    0.3419 C.2       1 <0>         0.4173
      9 S1          0.1646    9.3125    0.6395 S.3       1 <0>         0.0370
     10 N2          0.3746    6.5039    0.1329 N.pl3     1 <0>        -0.5130
     11 N3         -1.0205    6.3751    0.1448 N.2       1 <0>        -0.2093
     12 C8         -1.5700    5.2252   -0.1176 C.2       1 <0>         0.1578
     13 C9         -0.7429    4.1054   -0.5769 C.2       1 <0>        -0.0181
     14 C10        -1.1679    2.8238   -0.7755 C.2       1 <0>        -0.1157
     15 C11        -0.0489    2.0887   -1.2105 C.2       1 <0>        -0.1398
     16 C12         0.9921    2.9468   -1.2658 C.2       1 <0>         0.0269
     17 O1          0.5691    4.1633   -0.8826 O.3       1 <0>        -0.1584
     18 Br1         2.7541    2.5089   -1.7943 Br        1 <0>         0.0913
     19 Br2        -0.0125    0.2484   -1.6436 Br        1 <0>         0.0267
     20 H1          5.2818   11.4487    0.9038 H         1 <0>         0.1338
     21 H2          3.4653   13.0734    1.2428 H         1 <0>         0.1382
     22 H3          1.1153   12.3105    1.1655 H         1 <0>         0.1332
     23 H4          4.8088    9.0990    0.4904 H         1 <0>         0.1315
     24 H5          0.9321    5.7255   -0.0224 H         1 <0>         0.4120
     25 H6         -2.6354    5.0958    0.0029 H         1 <0>         0.2289
     26 H7         -2.1685    2.4461   -0.6254 H         1 <0>         0.1824
@<TRIPOS>BOND
     1    1    6 ar
     2    1    2 ar
     3    1   20 1
     4    2    3 ar
     5    2   21 1
     6    3    4 ar
     7    3   22 1
     8    4    9 1
     9    4    5 ar
    10    5    6 ar
    11    5    7 1
    12    6   23 1
    13    7    8 2
    14    8    9 1
    15    8   10 1
    16   10   11 1
    17   10   24 1
    18   11   12 2
    19   12   13 1
    20   12   25 1
    21   13   17 1
    22   13   14 2
    23   14   15 1
    24   14   26 1
    25   15   16 2
    26   15   19 1
    27   16   17 1
    28   16   18 1
@<TRIPOS>MOLECULE
ZINC00633706
   38    41     0     0     0
SMALL
USER_CHARGES

@<TRIPOS>ATOM
      1 C1         -0.0184    1.5028    0.0103 C.3       1 <0>        -0.0591
      2 C2          0.0021   -0.0041    0.0020 C.2       1 <0>         0.2216
      3 N1          0.0079   -0.7682   -1.0912 N.2       1 <0>        -0.4918
      4 C3          0.0254   -2.0316   -0.7466 C.2       1 <0>         0.4279
      5 N2          0.0388   -2.0839    0.6209 N.pl3     1 <0>        -0.4077
      6 N3          0.0226   -0.7677    1.0696 N.2       1 <0>        -0.2806
      7 C4          0.0768   -3.3445    1.3618 C.3       1 <0>         0.2065
      8 H1          1.1118   -3.6325    1.5460 H         1 <0>         0.1102
      9 C5         -0.6156   -4.4156    0.5106 C.3       1 <0>        -0.1504
     10 C6         -0.2086   -4.3060   -0.9317 C.2       1 <0>         0.2614
     11 N4          0.0525   -3.1611   -1.5036 N.2       1 <0>        -0.4277
     12 C7         -0.1000   -5.5362   -1.7308 C.ar      1 <0>        -0.0792
     13 C8         -0.3783   -6.7782   -1.1504 C.ar      1 <0>        -0.0700
     14 C9         -0.2749   -7.9267   -1.9054 C.ar      1 <0>        -0.1169
     15 C10         0.1037   -7.8531   -3.2361 C.ar      1 <0>        -0.0071
     16 C11         0.3814   -6.6266   -3.8176 C.ar      1 <0>        -0.1180
     17 C12         0.2766   -5.4692   -3.0765 C.ar      1 <0>        -0.0443
     18 Cl1         0.2313   -9.3049   -4.1794 Cl        1 <0>        -0.0568
     19 C13        -0.6490   -3.1867    2.6731 C.ar      1 <0>        -0.0827
     20 C14        -1.9879   -2.8429    2.6847 C.ar      1 <0>        -0.0833
     21 C15        -2.6541   -2.6984    3.8871 C.ar      1 <0>        -0.0871
     22 C16        -1.9809   -2.8980    5.0789 C.ar      1 <0>        -0.0772
     23 C17        -0.6411   -3.2420    5.0668 C.ar      1 <0>        -0.0878
     24 C18         0.0229   -3.3913    3.8638 C.ar      1 <0>        -0.0861
     25 Br1        -2.8916   -2.6999    6.7243 Br        1 <0>        -0.0407
     26 H2          1.0042    1.8801    0.0026 H         1 <0>         0.0865
     27 H3         -0.5455    1.8639   -0.8728 H         1 <0>         0.0892
     28 H4         -0.5286    1.8543    0.9071 H         1 <0>         0.0847
     29 H5         -0.3426   -5.4020    0.8854 H         1 <0>         0.1306
     30 H6         -1.6957   -4.2909    0.5880 H         1 <0>         0.1173
     31 H7         -0.6732   -6.8370   -0.1131 H         1 <0>         0.1427
     32 H8         -0.4891   -8.8863   -1.4585 H         1 <0>         0.1436
     33 H9          0.6766   -6.5769   -4.8553 H         1 <0>         0.1433
     34 H10         0.4890   -4.5134   -3.5322 H         1 <0>         0.1511
     35 H11        -2.5134   -2.6867    1.7542 H         1 <0>         0.1249
     36 H12        -3.7000   -2.4295    3.8962 H         1 <0>         0.1371
     37 H13        -0.1151   -3.3979    5.9970 H         1 <0>         0.1394
     38 H14         1.0679   -3.6639    3.8541 H         1 <0>         0.1362
@<TRIPOS>BOND
     1    1    2 1
     2    1   26 1
     3    1   27 1
     4    1   28 1
     5    2    6 2
     6    2    3 1
     7    3    4 2
     8    4    5 1
     9    4   11 1
    10    5    6 1
    11    5    7 1
    12    7    8 1
    13    7   19 1
    14    7    9 1
    15    9   10 1
    16    9   29 1
    17    9   30 1
    18   10   11 2
    19   10   12 1
    20   12   17 ar
    21   12   13 ar
    22   13   14 ar
    23   13   31 1
    24   14   15 ar
    25   14   32 1
    26   15   16 ar
    27   15   18 1
    28   16   17 ar
    29   16   33 1
    30   17   34 1
    31   19   24 ar
    32   19   20 ar
    33   20   21 ar
    34   20   35 1
    35   21   22 ar
    36   21   36 1
    37   22   23 ar
    38   22   25 1
    39   23   24 ar
    40   23   37 1
    41   24   38 1
@<TRIPOS>MOLECULE
ZINC59227370
   46    48     0     0     0
SMALL
USER_CHARGES

@<TRIPOS>ATOM
      1 C1         -0.0285    1.5037    0.0040 C.3       1 <0>        -0.1147
      2 C2         -0.0115   -0.0032   -0.0028 C.ar      1 <0>        -0.1088
      3 C3         -0.0352   -0.6990    1.1922 C.ar      1 <0>        -0.0882
      4 C4         -0.0197   -2.0798    1.1894 C.ar      1 <0>        -0.1559
      5 C5          0.0192   -2.7699   -0.0154 C.ar      1 <0>         0.1599
      6 C6          0.0424   -2.0684   -1.2134 C.ar      1 <0>        -0.1530
      7 C7          0.0219   -0.6873   -1.2039 C.ar      1 <0>        -0.0594
      8 C8          0.0414    0.0748   -2.5039 C.3       1 <0>        -0.1172
      9 N1          0.0354   -4.1691   -0.0217 N.am      1 <0>        -0.5563
     10 C9         -0.0314   -4.9925   -1.2347 C.3       1 <0>         0.1108
     11 C10         0.4489   -6.3969   -0.8065 C.3       1 <0>        -0.1236
     12 H1          1.5205   -6.5096   -0.9709 H         1 <0>         0.1289
     13 C11         0.1179   -6.3963    0.7039 C.3       1 <0>        -0.1445
     14 C12         0.1200   -4.9316    1.0820 C.2       1 <0>         0.5197
     15 O1          0.1859   -4.5070    2.2163 O.2       1 <0>        -0.5006
     16 C13        -0.3207   -7.4733   -1.5277 C.2       1 <0>         0.5291
     17 O2         -1.1858   -7.1713   -2.3224 O.2       1 <0>        -0.5032
     18 N2         -0.0478   -8.7714   -1.2896 N.am      1 <0>        -0.6627
     19 C14        -0.7041   -9.7697   -2.0188 C.ar      1 <0>         0.1570
     20 C15        -1.9533   -9.5198   -2.5718 C.ar      1 <0>        -0.1247
     21 C16        -2.5984  -10.5063   -3.2912 C.ar      1 <0>        -0.0751
     22 C17        -2.0015  -11.7432   -3.4608 C.ar      1 <0>        -0.1026
     23 C18        -0.7572  -11.9948   -2.9111 C.ar      1 <0>        -0.0713
     24 C19        -0.1049  -11.0097   -2.1954 C.ar      1 <0>        -0.1083
     25 C20         1.2532  -11.2825   -1.6020 C.3       1 <0>        -0.1172
     26 Br1        -2.8884  -13.0921   -4.4455 Br        1 <0>        -0.0484
     27 H2         -1.0599    1.8555   -0.0164 H         1 <0>         0.0696
     28 H3          0.4621    1.8684    0.9065 H         1 <0>         0.0659
     29 H4          0.5002    1.8769   -0.8731 H         1 <0>         0.0681
     30 H5         -0.0654   -0.1618    2.1287 H         1 <0>         0.1272
     31 H6         -0.0375   -2.6226    2.1229 H         1 <0>         0.1541
     32 H7          0.0727   -2.6022   -2.1519 H         1 <0>         0.1258
     33 H8          1.0734    0.2700   -2.7952 H         1 <0>         0.0725
     34 H9         -0.4494   -0.5149   -3.2781 H         1 <0>         0.0670
     35 H10        -0.4859    1.0205   -2.3785 H         1 <0>         0.0715
     36 H11        -1.0565   -5.0402   -1.6022 H         1 <0>         0.1036
     37 H12         0.6269   -4.5867   -2.0029 H         1 <0>         0.0963
     38 H13        -0.8630   -6.8382    0.8797 H         1 <0>         0.1165
     39 H14         0.8847   -6.9329    1.2627 H         1 <0>         0.1202
     40 H15         0.6035   -9.0139   -0.6129 H         1 <0>         0.4158
     41 H16        -2.4200   -8.5549   -2.4391 H         1 <0>         0.1619
     42 H17        -3.5699  -10.3125   -3.7214 H         1 <0>         0.1369
     43 H18        -0.2936  -12.9610   -3.0450 H         1 <0>         0.1375
     44 H19         1.1359  -11.6860   -0.5963 H         1 <0>         0.0766
     45 H20         1.7830  -12.0043   -2.2237 H         1 <0>         0.0770
     46 H21         1.8231  -10.3544   -1.5570 H         1 <0>         0.0659
@<TRIPOS>BOND
     1    1    2 1
     2    1   27 1
     3    1   28 1
     4    1   29 1
     5    2    7 ar
     6    2    3 ar
     7    3    4 ar
     8    3   30 1
     9    4    5 ar
    10    4   31 1
    11    5    6 ar
    12    5    9 1
    13    6    7 ar
    14    6   32 1
    15    7    8 1
    16    8   33 1
    17    8   34 1
    18    8   35 1
    19    9   14 am
    20    9   10 1
    21   10   11 1
    22   10   36 1
    23   10   37 1
    24   11   12 1
    25   11   13 1
    26   11   16 1
    27   13   14 1
    28   13   38 1
    29   13   39 1
    30   14   15 2
    31   16   17 2
    32   16   18 am
    33   18   19 1
    34   18   40 1
    35   19   24 ar
    36   19   20 ar
    37   20   21 ar
    38   20   41 1
    39   21   22 ar
    40   21   42 1
    41   22   23 ar
    42   22   26 1
    43   23   24 ar
    44   23   43 1
    45   24   25 1
    46   25   44 1
    47   25   45 1
    48   25   46 1
@<TRIPOS>MOLECULE
ZINC13233570
   52    55     0     0     0
SMALL
USER_CHARGES
(3S)-2-[2-[3-[(1S)-2-hydroxy-1-methyl-2-oxo-ethyl]-4-oxo-quinazolin-2-yl]sulfanylacetyl]-3,4-dihydro-1H-isoquinoline-3-carboxylic acid
@<TRIPOS>ATOM
      1 C1         -2.2535   -4.5399    5.9963 C.3       1 <0>        -0.1451
      2 C2         -1.0682   -3.5825    5.8572 C.3       1 <0>         0.0719
      3 H1         -1.4346   -2.5583    5.7872 H         1 <0>         0.1067
      4 C3         -0.1721   -3.7142    7.0617 C.2       1 <0>         0.4677
      5 O1          0.8362   -4.3766    6.9950 O.co2     1 <0>        -0.6073
      6 N1         -0.3118   -3.9143    4.6472 N.am      1 <0>        -0.5018
      7 C4          0.2393   -5.1433    4.5150 C.2       1 <0>         0.5560
      8 O2          0.1198   -5.9860    5.3854 O.2       1 <0>        -0.4718
      9 C5          0.9867   -5.4225    3.2813 C.ar      1 <0>        -0.2031
     10 C6          1.5909   -6.6573    3.0495 C.ar      1 <0>        -0.0329
     11 C7          2.2747   -6.8644    1.8834 C.ar      1 <0>        -0.1649
     12 C8          2.3728   -5.8591    0.9299 C.ar      1 <0>        -0.0789
     13 C9          1.7903   -4.6398    1.1312 C.ar      1 <0>        -0.1264
     14 C10         1.0843   -4.3970    2.3134 C.ar      1 <0>         0.1841
     15 N2          0.4897   -3.2104    2.5504 N.2       1 <0>        -0.5636
     16 C11        -0.1680   -2.9814    3.6602 C.2       1 <0>         0.3700
     17 S1         -0.9077   -1.3983    3.8866 S.3       1 <0>         0.0963
     18 C12        -0.4204   -0.5992    2.3374 C.3       1 <0>        -0.1478
     19 C13        -0.9582    0.8082    2.3073 C.2       1 <0>         0.5172
     20 O3         -1.6071    1.2296    3.2413 O.2       1 <0>        -0.4507
     21 N3         -0.7182    1.5988    1.2424 N.am      1 <0>        -0.5964
     22 C14        -0.0390    1.0845    0.0483 C.3       1 <0>         0.1472
     23 C15        -0.7574    1.5621   -1.1887 C.ar      1 <0>        -0.0949
     24 C16        -0.4122    0.9829   -2.4023 C.ar      1 <0>        -0.1126
     25 C17        -1.0269    1.3850   -3.5701 C.ar      1 <0>        -0.1333
     26 C18        -1.9929    2.3734   -3.5311 C.ar      1 <0>        -0.1231
     27 C19        -2.3395    2.9465   -2.3255 C.ar      1 <0>        -0.1238
     28 C20        -1.7264    2.5392   -1.1467 C.ar      1 <0>        -0.0507
     29 C21        -2.1757    3.1899    0.1349 C.3       1 <0>        -0.0865
     30 C22        -1.1268    3.0128    1.2317 C.3       1 <0>         0.1038
     31 H2         -0.2638    3.6449    1.0220 H         1 <0>         0.0721
     32 C23        -1.7180    3.3842    2.5672 C.2       1 <0>         0.4878
     33 O4         -2.9121    3.3170    2.7390 O.co2     1 <0>        -0.6274
     34 H3         -1.8870   -5.5641    6.0663 H         1 <0>         0.0741
     35 H4         -2.8162   -4.2930    6.8965 H         1 <0>         0.0794
     36 H5         -2.9016   -4.4447    5.1251 H         1 <0>         0.0500
     37 H6          1.5199   -7.4444    3.7856 H         1 <0>         0.1310
     38 H7          2.7432   -7.8204    1.7016 H         1 <0>         0.1219
     39 H8          2.9178   -6.0440    0.0160 H         1 <0>         0.1229
     40 H9          1.8744   -3.8675    0.3810 H         1 <0>         0.1315
     41 H10        -0.8254   -1.1610    1.4957 H         1 <0>         0.1211
     42 H11         0.6671   -0.5741    2.2679 H         1 <0>         0.1236
     43 H12        -0.0410   -0.0053    0.0710 H         1 <0>         0.0940
     44 H13         0.9895    1.4451    0.0324 H         1 <0>         0.0783
     45 H14         0.3435    0.2120   -2.4325 H         1 <0>         0.1217
     46 H15        -0.7549    0.9294   -4.5108 H         1 <0>         0.1173
     47 H16        -2.4751    2.6955   -4.4422 H         1 <0>         0.1161
     48 H17        -3.0940    3.7188   -2.2973 H         1 <0>         0.1197
     49 H18        -2.3354    4.2538   -0.0400 H         1 <0>         0.0776
     50 H19        -3.1121    2.7354    0.4586 H         1 <0>         0.0956
     51 O5         -0.4941   -3.0955    8.2086 O.co2     1 <0>        -0.7529
     52 O6         -0.9181    3.7895    3.5660 O.co2     1 <0>        -0.7608
@<TRIPOS>BOND
     1    1    2 1
     2    1   34 1
     3    1   35 1
     4    1   36 1
     5    2    3 1
     6    2    4 1
     7    2    6 1
     8    4    5 2
     9    4   51 1
    10    6   16 1
    11    6    7 am
    12    7    8 2
    13    7    9 1
    14    9   14 ar
    15    9   10 ar
    16   10   11 ar
    17   10   37 1
    18   11   12 ar
    19   11   38 1
    20   12   13 ar
    21   12   39 1
    22   13   14 ar
    23   13   40 1
    24   14   15 1
    25   15   16 2
    26   16   17 1
    27   17   18 1
    28   18   19 1
    29   18   41 1
    30   18   42 1
    31   19   20 2
    32   19   21 am
    33   21   30 1
    34   21   22 1
    35   22   23 1
    36   22   43 1
    37   22   44 1
    38   23   28 ar
    39   23   24 ar
    40   24   25 ar
    41   24   45 1
    42   25   26 ar
    43   25   46 1
    44   26   27 ar
    45   26   47 1
    46   27   28 ar
    47   27   48 1
    48   28   29 1
    49   29   30 1
    50   29   49 1
    51   29   50 1
    52   30   31 1
    53   30   32 1
    54   32   33 2
    55   32   52 1
@<TRIPOS>MOLECULE
ZINC04357084
   38    39     0     0     0
SMALL
USER_CHARGES
(2S)-2-[5-[(Z)-2-chloro-3-phenyl-prop-2-enylidene]-4-oxo-2-thioxo-thiazolidin-3-yl]pentanedioic acid
@<TRIPOS>ATOM
      1 C1          5.0256   -4.3425    0.1388 C.ar      1 <0>        -0.1137
      2 C2          3.8558   -3.8910   -0.4476 C.ar      1 <0>        -0.1234
      3 C3          3.5516   -2.5464   -0.4415 C.ar      1 <0>        -0.0950
      4 C4          4.4292   -1.6371    0.1595 C.ar      1 <0>        -0.0694
      5 C5          5.6124   -2.1012    0.7454 C.ar      1 <0>        -0.0991
      6 C6          5.8992   -3.4496    0.7354 C.ar      1 <0>        -0.1304
      7 C7          4.1130   -0.2016    0.1701 C.2       1 <0>        -0.0773
      8 C8          2.8376    0.2098    0.3704 C.2       1 <0>        -0.0408
      9 C9          2.5481    1.5863    0.4700 C.2       1 <0>        -0.0013
     10 C10         1.2801    1.9974    0.7595 C.2       1 <0>        -0.1736
     11 C11        -0.0130    1.4124    0.3571 C.2       1 <0>         0.5251
     12 O1         -0.0745    0.4137   -0.3364 O.2       1 <0>        -0.4457
     13 N1         -1.1019    2.0302    0.7828 N.am      1 <0>        -0.4846
     14 C12        -1.0293    3.1331    1.5557 C.2       1 <0>         0.2944
     15 S1         -2.3118    4.0627    2.2054 S.2       1 <0>        -0.2632
     16 S2          0.7285    3.3931    1.7308 S.3       1 <0>         0.0062
     17 C13        -2.4167    1.5012    0.4116 C.3       1 <0>         0.0699
     18 H1         -2.2517    0.6156   -0.2196 H         1 <0>         0.1100
     19 C14        -3.1956    1.1367    1.6771 C.3       1 <0>        -0.1079
     20 C15        -2.4868   -0.0108    2.3995 C.3       1 <0>        -0.1506
     21 C16        -3.2540   -0.3698    3.6459 C.2       1 <0>         0.4652
     22 O2         -4.2640    0.2305    3.9275 O.co2     1 <0>        -0.6319
     23 O3         -2.8153   -1.3565    4.4432 O.co2     1 <0>        -0.7890
     24 C17        -3.1778    2.5457   -0.3634 C.2       1 <0>         0.4793
     25 O4         -2.6738    3.6216   -0.5831 O.co2     1 <0>        -0.6247
     26 O5         -4.4158    2.2808   -0.8096 O.co2     1 <0>        -0.7464
     27 Cl1         1.5599   -0.9579    0.5045 Cl        1 <0>        -0.0153
     28 H2          5.2580   -5.3971    0.1310 H         1 <0>         0.1189
     29 H3          3.1797   -4.5941   -0.9113 H         1 <0>         0.1234
     30 H4          2.6383   -2.1958   -0.8991 H         1 <0>         0.1395
     31 H5          6.2969   -1.4054    1.2077 H         1 <0>         0.1239
     32 H6          6.8100   -3.8099    1.1904 H         1 <0>         0.1205
     33 H7          4.9118    0.5387    0.0154 H         1 <0>         0.1503
     34 H8          3.3448    2.3285    0.3142 H         1 <0>         0.1657
     35 H9         -3.2466    2.0122    2.3412 H         1 <0>         0.0965
     36 H10        -4.2142    0.8242    1.4035 H         1 <0>         0.0929
     37 H11        -2.4358   -0.8862    1.7354 H         1 <0>         0.0575
     38 H12        -1.4682    0.3017    2.6731 H         1 <0>         0.0444
@<TRIPOS>BOND
     1    1    6 ar
     2    1    2 ar
     3    1   28 1
     4    2    3 ar
     5    2   29 1
     6    3    4 ar
     7    3   30 1
     8    4    5 ar
     9    4    7 1
    10    5    6 ar
    11    5   31 1
    12    6   32 1
    13    7    8 2
    14    7   33 1
    15    8    9 1
    16    8   27 1
    17    9   10 2
    18    9   34 1
    19   10   16 1
    20   10   11 1
    21   11   12 2
    22   11   13 am
    23   13   14 1
    24   13   17 1
    25   14   15 2
    26   14   16 1
    27   17   18 1
    28   17   19 1
    29   17   24 1
    30   19   20 1
    31   19   35 1
    32   19   36 1
    33   20   21 1
    34   20   37 1
    35   20   38 1
    36   21   22 2
    37   21   23 1
    38   24   25 2
    39   24   26 1
@<TRIPOS>MOLECULE
ZINC13277493
   53    56     0     0     0
SMALL
USER_CHARGES

@<TRIPOS>ATOM
      1 C1          0.3311    0.2107   -0.3136 C.3       1 <0>        -0.1031
      2 C2          0.3382   -1.2494    0.0591 C.ar      1 <0>        -0.0795
      3 C3          0.3549   -2.2132   -0.9322 C.ar      1 <0>        -0.1348
      4 C4          0.3620   -3.5520   -0.5997 C.ar      1 <0>        -0.0832
      5 C5          0.3522   -3.9383    0.7435 C.ar      1 <0>        -0.1365
      6 C6          0.3354   -2.9651    1.7441 C.ar      1 <0>        -0.0623
      7 C7          0.3337   -1.6224    1.3983 C.ar      1 <0>         0.1554
      8 N1          0.3227   -0.6437    2.3962 N.am      1 <0>        -0.5564
      9 C8         -0.8699   -0.0072    2.9675 C.3       1 <0>         0.2648
     10 H1         -1.4234    0.5181    2.1891 H         1 <0>         0.0718
     11 C9         -0.3701    0.9742    4.0017 C.2       1 <0>        -0.4872
     12 C10         0.9837    0.8867    4.0012 C.2       1 <0>         0.2930
     13 C11         1.4031   -0.1236    3.0061 C.2       1 <0>         0.5066
     14 O1          2.5537   -0.4363    2.7724 O.2       1 <0>        -0.5281
     15 O2          1.8159    1.6050    4.7877 O.3       1 <0>        -0.6086
     16 C12        -1.1608    1.8210    4.8133 C.2       1 <0>         0.4506
     17 O3         -0.6393    2.4889    5.6823 O.2       1 <0>        -0.5140
     18 C13        -2.6507    1.8938    4.5990 C.3       1 <0>        -0.1895
     19 C14        -3.2998    3.2792    4.6143 C.3       1 <0>        -0.1642
     20 C15        -3.5153    2.3205    5.7870 C.3       1 <0>        -0.1626
     21 C16        -1.7492   -1.0441    3.6177 C.ar      1 <0>        -0.1129
     22 C17        -1.7221   -1.2121    4.9889 C.ar      1 <0>        -0.0476
     23 C18        -2.5281   -2.1634    5.5859 C.ar      1 <0>        -0.1660
     24 C19        -3.3636   -2.9488    4.8130 C.ar      1 <0>        -0.0823
     25 C20        -3.3947   -2.7845    3.4419 C.ar      1 <0>        -0.2144
     26 C21        -2.5905   -1.8267    2.8408 C.ar      1 <0>         0.1453
     27 O4         -2.6234   -1.6593    1.4925 O.3       1 <0>        -0.2940
     28 C22        -3.5600   -2.4544    0.7627 C.3       1 <0>         0.0886
     29 C23        -3.4475   -2.1407   -0.7070 C.2       1 <0>        -0.1471
     30 C24        -3.3770   -3.1139   -1.5810 C.2       1 <0>        -0.1679
     31 C25         0.3593   -5.3695    1.1025 C.2       1 <0>         0.5247
     32 O5          0.3736   -6.2201    0.2240 O.co2     1 <0>        -0.6981
     33 O6          0.3507   -5.7050    2.2784 O.co2     1 <0>        -0.6871
     34 H2          1.3570    0.5691   -0.3983 H         1 <0>         0.0597
     35 H3         -0.1788    0.3396   -1.2684 H         1 <0>         0.0553
     36 H4         -0.1902    0.7797    0.4563 H         1 <0>         0.0655
     37 H5          0.3621   -1.9167   -1.9707 H         1 <0>         0.1095
     38 H6          0.3746   -4.3015   -1.3771 H         1 <0>         0.1194
     39 H7          0.3278   -3.2570    2.7839 H         1 <0>         0.1189
     40 H8         -3.0643    1.1513    3.9165 H         1 <0>         0.1094
     41 H9         -2.6491    4.1380    4.7793 H         1 <0>         0.0935
     42 H10        -4.1405    3.4485    3.9415 H         1 <0>         0.0878
     43 H11        -4.4979    1.8591    5.8858 H         1 <0>         0.0873
     44 H12        -3.0064    2.5485    6.7236 H         1 <0>         0.0968
     45 H13        -1.0705   -0.5999    5.5947 H         1 <0>         0.1341
     46 H14        -2.5050   -2.2936    6.6578 H         1 <0>         0.1157
     47 H15        -3.9920   -3.6916    5.2818 H         1 <0>         0.1144
     48 H16        -4.0473   -3.3982    2.8387 H         1 <0>         0.1188
     49 H17        -3.3452   -3.5105    0.9262 H         1 <0>         0.0651
     50 H18        -4.5704   -2.2319    1.1055 H         1 <0>         0.0611
     51 H19        -3.4251   -1.1134   -1.0397 H         1 <0>         0.1137
     52 H20        -3.2964   -2.8890   -2.6343 H         1 <0>         0.1015
     53 H21        -3.3995   -4.1412   -1.2483 H         1 <0>         0.0990
@<TRIPOS>BOND
     1    1    2 1
     2    1   34 1
     3    1   35 1
     4    1   36 1
     5    2    7 ar
     6    2    3 ar
     7    3    4 ar
     8    3   37 1
     9    4    5 ar
    10    4   38 1
    11    5    6 ar
    12    5   31 1
    13    6    7 ar
    14    6   39 1
    15    7    8 1
    16    8   13 am
    17    8    9 1
    18    9   10 1
    19    9   11 1
    20    9   21 1
    21   11   12 2
    22   11   16 1
    23   12   13 1
    24   12   15 1
    25   13   14 2
    26   16   17 2
    27   16   18 1
    28   18   20 1
    29   18   19 1
    30   18   40 1
    31   19   20 1
    32   19   41 1
    33   19   42 1
    34   20   43 1
    35   20   44 1
    36   21   26 ar
    37   21   22 ar
    38   22   23 ar
    39   22   45 1
    40   23   24 ar
    41   23   46 1
    42   24   25 ar
    43   24   47 1
    44   25   26 ar
    45   25   48 1
    46   26   27 1
    47   27   28 1
    48   28   29 1
    49   28   49 1
    50   28   50 1
    51   29   30 2
    52   29   51 1
    53   30   52 1
    54   30   53 1
    55   31   32 2
    56   31   33 1
@<TRIPOS>MOLECULE
ZINC13217071
   51    54     0     0     0
SMALL
USER_CHARGES

@<TRIPOS>ATOM
      1 C1         -0.0443    1.4672    0.1029 C.3       1 <0>        -0.1077
      2 C2         -0.0013   -0.0390    0.0774 C.ar      1 <0>        -0.0923
      3 C3          1.2013   -0.6971    0.2684 C.ar      1 <0>        -0.1243
      4 C4          1.2479   -2.0752    0.2459 C.ar      1 <0>        -0.0766
      5 C5          0.0779   -2.8069    0.0301 C.ar      1 <0>        -0.1028
      6 C6         -1.1319   -2.1365   -0.1615 C.ar      1 <0>        -0.0569
      7 C7         -1.1651   -0.7577   -0.1313 C.ar      1 <0>        -0.1265
      8 C8         -2.3994   -2.9175   -0.3951 C.3       1 <0>        -0.1264
      9 C9          0.1203   -4.2847    0.0041 C.2       1 <0>         0.4668
     10 O1          0.2307   -4.9084    1.0428 O.2       1 <0>        -0.4909
     11 C10         0.0293   -4.9980   -1.2728 C.2       1 <0>        -0.4754
     12 C11        -0.0482   -6.3389   -1.4453 C.2       1 <0>         0.2840
     13 C12        -0.1251   -6.6387   -2.8901 C.2       1 <0>         0.5021
     14 O2         -0.2040   -7.7532   -3.3677 O.2       1 <0>        -0.5144
     15 N1         -0.0953   -5.4954   -3.5988 N.am      1 <0>        -0.5427
     16 C13        -0.0028   -4.3789   -2.6507 C.3       1 <0>         0.2669
     17 H1         -0.8715   -3.7280   -2.7490 H         1 <0>         0.0728
     18 C14         1.2618   -3.5972   -2.8972 C.2       1 <0>        -0.1166
     19 C15         1.2433   -2.2151   -2.8977 C.2       1 <0>        -0.1234
     20 C16         2.3983   -1.5423   -3.1227 C.2       1 <0>        -0.1856
     21 S1          3.5650   -2.8753   -3.3440 S.3       1 <0>         0.0056
     22 C17         2.4356   -4.2389   -3.1161 C.2       1 <0>        -0.1317
     23 C18        -0.1487   -5.3895   -4.9912 C.ar      1 <0>         0.1603
     24 C19        -0.1027   -4.1400   -5.5967 C.ar      1 <0>        -0.1486
     25 C20        -0.1558   -4.0390   -6.9729 C.ar      1 <0>        -0.0921
     26 C21        -0.2547   -5.1799   -7.7483 C.ar      1 <0>        -0.0519
     27 C22        -0.3007   -6.4253   -7.1489 C.ar      1 <0>        -0.0918
     28 C23        -0.2423   -6.5339   -5.7734 C.ar      1 <0>        -0.1548
     29 C24        -0.3128   -5.0656   -9.2498 C.3       1 <0>        -0.1506
     30 C25         1.0849   -5.1088   -9.8115 C.2       1 <0>         0.4955
     31 O3          2.0399   -5.2219   -9.0619 O.co2     1 <0>        -0.6822
     32 O4          1.2609   -5.0307  -11.0154 O.co2     1 <0>        -0.7134
     33 O5         -0.0538   -7.2579   -0.4527 O.3       1 <0>        -0.6103
     34 H2         -0.2229    1.8084    1.1226 H         1 <0>         0.0624
     35 H3          0.9070    1.8639   -0.2517 H         1 <0>         0.0616
     36 H4         -0.8482    1.8187   -0.5439 H         1 <0>         0.0612
     37 H5          2.1052   -0.1301    0.4352 H         1 <0>         0.1150
     38 H6          2.1870   -2.5875    0.3944 H         1 <0>         0.1170
     39 H7         -2.1008   -0.2380   -0.2753 H         1 <0>         0.1161
     40 H8         -2.9220   -3.0536    0.5517 H         1 <0>         0.0665
     41 H9         -3.0396   -2.3722   -1.0885 H         1 <0>         0.0637
     42 H10        -2.1532   -3.8918   -0.8174 H         1 <0>         0.0832
     43 H11         0.3222   -1.6792   -2.7219 H         1 <0>         0.1262
     44 H12         2.5685   -0.4764   -3.1591 H         1 <0>         0.1760
     45 H13         2.6354   -5.2998   -3.1460 H         1 <0>         0.1736
     46 H14        -0.0259   -3.2487   -4.9917 H         1 <0>         0.1171
     47 H15        -0.1204   -3.0679   -7.4443 H         1 <0>         0.1121
     48 H16        -0.3782   -7.3142   -7.7573 H         1 <0>         0.1133
     49 H17        -0.2734   -7.5070   -5.3061 H         1 <0>         0.1438
     50 H18        -0.8930   -5.8947   -9.6551 H         1 <0>         0.0639
     51 H19        -0.7858   -4.1227   -9.5244 H         1 <0>         0.0635
@<TRIPOS>BOND
     1    1    2 1
     2    1   34 1
     3    1   35 1
     4    1   36 1
     5    2    7 ar
     6    2    3 ar
     7    3    4 ar
     8    3   37 1
     9    4    5 ar
    10    4   38 1
    11    5    6 ar
    12    5    9 1
    13    6    7 ar
    14    6    8 1
    15    7   39 1
    16    8   40 1
    17    8   41 1
    18    8   42 1
    19    9   10 2
    20    9   11 1
    21   11   16 1
    22   11   12 2
    23   12   13 1
    24   12   33 1
    25   13   14 2
    26   13   15 am
    27   15   16 1
    28   15   23 1
    29   16   17 1
    30   16   18 1
    31   18   22 2
    32   18   19 1
    33   19   20 2
    34   19   43 1
    35   20   21 1
    36   20   44 1
    37   21   22 1
    38   22   45 1
    39   23   28 ar
    40   23   24 ar
    41   24   25 ar
    42   24   46 1
    43   25   26 ar
    44   25   47 1
    45   26   27 ar
    46   26   29 1
    47   27   28 ar
    48   27   48 1
    49   28   49 1
    50   29   30 1
    51   29   50 1
    52   29   51 1
    53   30   31 2
    54   30   32 1
@<TRIPOS>MOLECULE
ZINC16189432
   43    45     0     0     0
SMALL
USER_CHARGES

@<TRIPOS>ATOM
      1 C1          1.4821    1.3037   -0.1654 C.3       1 <0>         0.0763
      2 N1          1.0552   -0.0969   -0.1179 N.am      1 <0>        -0.5439
      3 C2          0.7892   -0.7388   -1.2429 C.2       1 <0>         0.5533
      4 O1          0.8907   -0.1930   -2.3261 O.2       1 <0>        -0.4832
      5 C3          0.3643   -2.1467   -1.1257 C.2       1 <0>        -0.2276
      6 C4          0.0332   -3.0305   -2.1014 C.2       1 <0>         0.0908
      7 C5         -0.0903   -2.5765   -3.4919 C.ar      1 <0>        -0.1268
      8 C6         -0.7185   -1.3598   -3.7825 C.ar      1 <0>         0.0229
      9 C7         -0.8302   -0.9402   -5.0908 C.ar      1 <0>        -0.1480
     10 C8         -0.3235   -1.7180   -6.1204 C.ar      1 <0>        -0.0290
     11 C9          0.2986   -2.9214   -5.8476 C.ar      1 <0>        -0.2227
     12 C10         0.4261   -3.3573   -4.5389 C.ar      1 <0>         0.1891
     13 O2          1.0421   -4.5368   -4.2700 O.3       1 <0>        -0.2692
     14 C11         1.5423   -5.2765   -5.3856 C.3       1 <0>        -0.0108
     15 C12         2.1883   -6.5472   -4.8968 C.2       1 <0>         0.5014
     16 O3          2.2176   -6.7963   -3.7037 O.co2     1 <0>        -0.6646
     17 O4          2.6817   -7.3262   -5.6945 O.co2     1 <0>        -0.6874
     18 Br1        -1.6789    0.7035   -5.4829 Br        1 <0>        -0.0655
     19 S1          0.4027   -2.3756    0.6462 S.3       1 <0>        -0.0335
     20 C13         0.9401   -0.7342    1.0984 C.2       1 <0>         0.3866
     21 N2          1.1681   -0.2508    2.2989 N.2       1 <0>        -0.4456
     22 C14         0.9972   -1.0451    3.4004 C.ar      1 <0>         0.0654
     23 C15        -0.1366   -1.8555    3.5106 C.ar      1 <0>        -0.1467
     24 C16        -0.3105   -2.6578    4.6205 C.ar      1 <0>        -0.1212
     25 C17         0.6322   -2.6665    5.6293 C.ar      1 <0>        -0.0809
     26 C18         1.7708   -1.8612    5.5333 C.ar      1 <0>        -0.1245
     27 C19         1.9560   -1.0524    4.4121 C.ar      1 <0>        -0.0540
     28 C20         2.7771   -1.8713    6.6126 C.2       1 <0>         0.5231
     29 O5          2.6156   -2.5848    7.5925 O.co2     1 <0>        -0.6865
     30 O6          3.7726   -1.1662    6.5271 O.co2     1 <0>        -0.6849
     31 H1          2.5685    1.3500   -0.2422 H         1 <0>         0.0702
     32 H2          1.0356    1.7904   -1.0324 H         1 <0>         0.0864
     33 H3          1.1601    1.8127    0.7430 H         1 <0>         0.0904
     34 H4         -0.1393   -4.0677   -1.8547 H         1 <0>         0.1601
     35 H5         -1.1152   -0.7512   -2.9833 H         1 <0>         0.1343
     36 H6         -0.4159   -1.3814   -7.1424 H         1 <0>         0.1312
     37 H7          0.6901   -3.5211   -6.6560 H         1 <0>         0.1407
     38 H8          0.7196   -5.5221   -6.0571 H         1 <0>         0.0640
     39 H9          2.2794   -4.6759   -5.9187 H         1 <0>         0.0636
     40 H10        -0.8784   -1.8537    2.7257 H         1 <0>         0.1223
     41 H11        -1.1886   -3.2815    4.7004 H         1 <0>         0.1208
     42 H12         0.4895   -3.2967    6.4947 H         1 <0>         0.1299
     43 H13         2.8360   -0.4317    4.3302 H         1 <0>         0.1338
@<TRIPOS>BOND
     1    1    2 1
     2    1   31 1
     3    1   32 1
     4    1   33 1
     5    2   20 1
     6    2    3 am
     7    3    4 2
     8    3    5 1
     9    5    6 2
    10    5   19 1
    11    6    7 1
    12    6   34 1
    13    7   12 ar
    14    7    8 ar
    15    8    9 ar
    16    8   35 1
    17    9   10 ar
    18    9   18 1
    19   10   11 ar
    20   10   36 1
    21   11   12 ar
    22   11   37 1
    23   12   13 1
    24   13   14 1
    25   14   15 1
    26   14   38 1
    27   14   39 1
    28   15   16 2
    29   15   17 1
    30   19   20 1
    31   20   21 2
    32   21   22 1
    33   22   27 ar
    34   22   23 ar
    35   23   24 ar
    36   23   40 1
    37   24   25 ar
    38   24   41 1
    39   25   26 ar
    40   25   42 1
    41   26   27 ar
    42   26   28 1
    43   27   43 1
    44   28   29 2
    45   28   30 1
@<TRIPOS>MOLECULE
ZINC00755740
   37    39     0     0     0
SMALL
USER_CHARGES
2,7-diamino-4-(3-bromo-4-methoxy-phenyl)-4H-chromene-3-carbonitrile
@<TRIPOS>ATOM
      1 C1          2.2249    5.2939    0.0079 C.3       1 <0>         0.0249
      2 O1          2.3217    3.8682   -0.0002 O.3       1 <0>        -0.3036
      3 C2          1.1553    3.1705    0.0076 C.ar      1 <0>         0.1533
      4 C3         -0.0572    3.8441    0.0223 C.ar      1 <0>        -0.2011
      5 C4         -1.2414    3.1328    0.0298 C.ar      1 <0>        -0.0439
      6 C5         -1.2193    1.7502    0.0173 C.ar      1 <0>        -0.1041
      7 C6         -0.0126    1.0758    0.0080 C.ar      1 <0>        -0.0466
      8 C7          1.1753    1.7828    0.0004 C.ar      1 <0>        -0.1237
      9 Br1         2.8258    0.8600   -0.0190 Br        1 <0>        -0.0374
     10 C8         -2.5130    0.9772    0.0192 C.3       1 <0>         0.0964
     11 H1         -2.2953   -0.0909    0.0179 H         1 <0>         0.0963
     12 C9         -3.3029    1.3237   -1.2151 C.ar      1 <0>        -0.1800
     13 C10        -2.9344    0.7800   -2.4332 C.ar      1 <0>        -0.0269
     14 C11        -3.6460    1.0859   -3.5758 C.ar      1 <0>        -0.2037
     15 C12        -4.7374    1.9433   -3.5052 C.ar      1 <0>         0.2475
     16 C13        -5.1087    2.4893   -2.2854 C.ar      1 <0>        -0.2073
     17 C14        -4.3910    2.1793   -1.1379 C.ar      1 <0>         0.1638
     18 O2         -4.7670    2.7209    0.0470 O.3       1 <0>        -0.2465
     19 C15        -4.3612    2.1607    1.1987 C.2       1 <0>         0.4402
     20 C16        -3.2981    1.3238    1.2528 C.2       1 <0>        -0.2765
     21 C17        -2.9147    0.7571    2.5108 C.1       1 <0>         0.2714
     22 N1         -2.6105    0.3076    3.5088 N.1       1 <0>        -0.4452
     23 N2         -5.0441    2.4456    2.3548 N.pl3     1 <0>        -0.8319
     24 N3         -5.4592    2.2541   -4.6598 N.pl3     1 <0>        -0.8711
     25 H2          1.6790    5.6261   -0.8752 H         1 <0>         0.0580
     26 H3          1.6963    5.6171    0.9047 H         1 <0>         0.0575
     27 H4          3.2255    5.7261    0.0003 H         1 <0>         0.1040
     28 H5         -0.0755    4.9240    0.0283 H         1 <0>         0.1356
     29 H6         -2.1856    3.6571    0.0416 H         1 <0>         0.1248
     30 H7          0.0021   -0.0041    0.0020 H         1 <0>         0.1385
     31 H8         -2.0865    0.1136   -2.4901 H         1 <0>         0.1333
     32 H9         -3.3545    0.6593   -4.5243 H         1 <0>         0.1290
     33 H10        -5.9567    3.1557   -2.2281 H         1 <0>         0.1343
     34 H11        -4.7631    2.0492    3.1943 H         1 <0>         0.4254
     35 H12        -5.8077    3.0434    2.3322 H         1 <0>         0.4108
     36 H13        -6.2210    2.8525   -4.6093 H         1 <0>         0.4012
     37 H14        -5.1986    1.8717   -5.5123 H         1 <0>         0.4034
@<TRIPOS>BOND
     1    1    2 1
     2    1   25 1
     3    1   26 1
     4    1   27 1
     5    2    3 1
     6    3    8 ar
     7    3    4 ar
     8    4    5 ar
     9    4   28 1
    10    5    6 ar
    11    5   29 1
    12    6    7 ar
    13    6   10 1
    14    7    8 ar
    15    7   30 1
    16    8    9 1
    17   10   11 1
    18   10   20 1
    19   10   12 1
    20   12   17 ar
    21   12   13 ar
    22   13   14 ar
    23   13   31 1
    24   14   15 ar
    25   14   32 1
    26   15   16 ar
    27   15   24 1
    28   16   17 ar
    29   16   33 1
    30   17   18 1
    31   18   19 1
    32   19   20 2
    33   19   23 1
    34   20   21 1
    35   21   22 3
    36   23   34 1
    37   23   35 1
    38   24   36 1
    39   24   37 1
@<TRIPOS>MOLECULE
ZINC20494053
   33    36     0     0     0
SMALL
USER_CHARGES
2-[(6-amino-1,3-benzothiazol-2-yl)methyl]-1,3-benzothiazol-6-amine
@<TRIPOS>ATOM
      1 C1         -0.9086   -2.2391   -0.0021 C.ar      1 <0>        -0.1897
      2 C2         -1.0979   -0.8935    0.0073 C.ar      1 <0>        -0.0001
      3 C3          0.0021   -0.0041    0.0020 C.ar      1 <0>         0.0012
      4 C4          1.2860   -0.5965   -0.0134 C.ar      1 <0>        -0.0736
      5 C5          1.4741   -1.9567   -0.0229 C.ar      1 <0>        -0.1721
      6 C6          0.3688   -2.7969   -0.0173 C.ar      1 <0>         0.2626
      7 N1          0.5349   -4.1853   -0.0272 N.pl3     1 <0>        -0.8863
      8 S1          2.3543    0.8230   -0.0160 S.3       1 <0>        -0.0157
      9 C7          1.0716    2.0675    0.0029 C.2       1 <0>         0.1346
     10 N2         -0.0162    1.3466    0.0094 N.2       1 <0>        -0.4689
     11 C8          1.2109    3.5680    0.0101 C.3       1 <0>         0.0654
     12 C9          1.2718    4.0601    1.4332 C.2       1 <0>         0.1345
     13 N3          2.3171    4.2338    2.1949 N.2       1 <0>        -0.4688
     14 C10         2.2289    4.6862    3.4647 C.ar      1 <0>         0.0012
     15 C11         3.2775    4.9159    4.3859 C.ar      1 <0>        -0.0001
     16 C12         3.0194    5.3768    5.6379 C.ar      1 <0>        -0.1897
     17 C13         1.7192    5.6420    6.0650 C.ar      1 <0>         0.2626
     18 C14         0.6628    5.4295    5.1896 C.ar      1 <0>        -0.1721
     19 C15         0.9204    4.9634    3.9239 C.ar      1 <0>        -0.0737
     20 S2         -0.0686    4.5615    2.5039 S.3       1 <0>        -0.0157
     21 N4          1.4821    6.1166    7.3588 N.pl3     1 <0>        -0.8863
     22 H1         -1.7687   -2.8922    0.0019 H         1 <0>         0.1320
     23 H2         -2.1025   -0.4974    0.0194 H         1 <0>         0.1337
     24 H3          2.4722   -2.3690   -0.0350 H         1 <0>         0.1304
     25 H4          1.5461   -4.6182   -0.0392 H         1 <0>         0.4229
     26 H5         -0.3456   -4.8446   -0.0230 H         1 <0>         0.4235
     27 H6          2.1338    3.8531   -0.5162 H         1 <0>         0.1328
     28 H7          0.3453    4.0191   -0.4971 H         1 <0>         0.1327
     29 H8          4.2979    4.7216    4.0902 H         1 <0>         0.1337
     30 H9          3.8415    5.5419    6.3185 H         1 <0>         0.1320
     31 H10        -0.3519    5.6292    5.5010 H         1 <0>         0.1304
     32 H11         0.4534    6.3236    7.6888 H         1 <0>         0.4229
     33 H12         2.3243    6.2829    8.0466 H         1 <0>         0.4236
@<TRIPOS>BOND
     1    1    6 ar
     2    1    2 ar
     3    1   22 1
     4    2    3 ar
     5    2   23 1
     6    3   10 1
     7    3    4 ar
     8    4    5 ar
     9    4    8 1
    10    5    6 ar
    11    5   24 1
    12    6    7 1
    13    7   25 1
    14    7   26 1
    15    8    9 1
    16    9   10 2
    17    9   11 1
    18   11   12 1
    19   11   27 1
    20   11   28 1
    21   12   20 1
    22   12   13 2
    23   13   14 1
    24   14   19 ar
    25   14   15 ar
    26   15   16 ar
    27   15   29 1
    28   16   17 ar
    29   16   30 1
    30   17   18 ar
    31   17   21 1
    32   18   19 ar
    33   18   31 1
    34   19   20 1
    35   21   32 1
    36   21   33 1
@<TRIPOS>MOLECULE
ZINC40229798
   34    35     0     0     0
SMALL
USER_CHARGES

@<TRIPOS>ATOM
      1 C1         -0.1050    0.8309    0.1770 C.3       1 <0>         0.0825
      2 N1         -0.4790   -0.5805    0.2964 N.pl3     1 <0>        -1.1213
      3 S1         -2.0760   -1.0183    0.2783 S.o2      1 <0>         2.6991
      4 O1         -2.1100   -2.4350    0.3836 O.2       1 <0>        -0.9610
      5 O2         -2.7403   -0.1694    1.2043 O.2       1 <0>        -0.9561
      6 C2         -2.7083   -0.6165   -1.3165 C.ar      1 <0>        -0.6685
      7 C3         -3.2538    0.6329   -1.5469 C.ar      1 <0>        -0.0295
      8 C4         -3.7517    0.9547   -2.7959 C.ar      1 <0>        -0.1664
      9 C5         -3.7045    0.0231   -3.8223 C.ar      1 <0>         0.1798
     10 C6         -3.1537   -1.2373   -3.5898 C.ar      1 <0>         0.1509
     11 C7         -2.6523   -1.5496   -2.3352 C.ar      1 <0>        -0.0610
     12 N2         -3.1030   -2.1823   -4.6212 N.pl3     1 <0>        -0.8801
     13 N3         -4.2085    0.3465   -5.0878 N.pl3     1 <0>        -0.6767
     14 C8         -4.6499    1.6464   -5.3533 C.ar      1 <0>         0.1634
     15 C9         -3.9089    2.7363   -4.9144 C.ar      1 <0>        -0.1369
     16 C10        -4.3462    4.0198   -5.1779 C.ar      1 <0>        -0.0705
     17 C11        -5.5210    4.2227   -5.8783 C.ar      1 <0>        -0.1451
     18 C12        -6.2641    3.1401   -6.3185 C.ar      1 <0>         0.0964
     19 C13        -5.8284    1.8509   -6.0621 C.ar      1 <0>         0.0316
     20 F1         -6.5496    0.7939   -6.4954 F         1 <0>        -0.1253
     21 F2         -7.4117    3.3418   -7.0022 F         1 <0>        -0.1229
     22 H1          0.9807    0.9230    0.2087 H         1 <0>         0.0830
     23 H2         -0.4757    1.2263   -0.7687 H         1 <0>         0.0608
     24 H3         -0.5416    1.3935    1.0022 H         1 <0>         0.0695
     25 H4          0.2088   -1.2586    0.3860 H         1 <0>         0.4191
     26 H5         -3.2913    1.3596   -0.7488 H         1 <0>         0.1424
     27 H6         -4.1777    1.9313   -2.9722 H         1 <0>         0.1423
     28 H7         -2.2219   -2.5232   -2.1527 H         1 <0>         0.1425
     29 H8         -3.4511   -1.9612   -5.4992 H         1 <0>         0.3933
     30 H9         -2.7197   -3.0583   -4.4580 H         1 <0>         0.4060
     31 H10        -4.2515   -0.3313   -5.7804 H         1 <0>         0.4114
     32 H11        -2.9912    2.5802   -4.3668 H         1 <0>         0.1486
     33 H12        -3.7696    4.8664   -4.8359 H         1 <0>         0.1485
     34 H13        -5.8601    5.2277   -6.0822 H         1 <0>         0.1502
@<TRIPOS>BOND
     1    1    2 1
     2    1   22 1
     3    1   23 1
     4    1   24 1
     5    2    3 1
     6    2   25 1
     7    3    4 2
     8    3    5 2
     9    3    6 1
    10    6   11 ar
    11    6    7 ar
    12    7    8 ar
    13    7   26 1
    14    8    9 ar
    15    8   27 1
    16    9   10 ar
    17    9   13 1
    18   10   11 ar
    19   10   12 1
    20   11   28 1
    21   12   29 1
    22   12   30 1
    23   13   14 1
    24   13   31 1
    25   14   19 ar
    26   14   15 ar
    27   15   16 ar
    28   15   32 1
    29   16   17 ar
    30   16   33 1
    31   17   18 ar
    32   17   34 1
    33   18   19 ar
    34   18   21 1
    35   19   20 1
@<TRIPOS>MOLECULE
ZINC47036128
   39    40     0     0     0
SMALL
USER_CHARGES

@<TRIPOS>ATOM
      1 C1         -0.0187    1.5258    0.0104 C.3       1 <0>        -0.1481
      2 C2          0.0021   -0.0041    0.0020 C.3       1 <0>        -0.0882
      3 H1         -1.0205   -0.3814    0.0098 H         1 <0>         0.0748
      4 C3          0.7182   -0.4975   -1.2568 C.3       1 <0>        -0.1175
      5 C4          0.7390   -2.0273   -1.2652 C.3       1 <0>        -0.1181
      6 C5          1.4790   -2.5342   -0.0257 C.3       1 <0>        -0.1306
      7 C6          0.7628   -2.0407    1.2331 C.3       1 <0>         0.1609
      8 H2         -0.2598   -2.4180    1.2409 H         1 <0>         0.0936
      9 C7          0.7421   -0.5109    1.2415 C.3       1 <0>        -0.1216
     10 N1          1.4714   -2.5260    2.4200 N.am      1 <0>        -0.7400
     11 C8          1.2068   -3.7544    2.9074 C.2       1 <0>         0.7140
     12 O1          0.3801   -4.4598    2.3622 O.2       1 <0>        -0.5615
     13 N2          1.8587   -4.2009    3.9993 N.am      1 <0>        -0.5280
     14 N3          2.8113   -3.3881    4.6276 N.am      1 <0>        -0.5320
     15 C9          3.4631   -3.8346    5.7195 C.2       1 <0>         0.5966
     16 O2          3.2243   -4.9437    6.1597 O.2       1 <0>        -0.5096
     17 C10         4.4604   -2.9836    6.3773 C.2       1 <0>        -0.0475
     18 C11         5.2033   -3.3113    7.4918 C.2       1 <0>        -0.0596
     19 C12         6.0246   -2.2151    7.7752 C.2       1 <0>        -0.1832
     20 C13         5.7743   -1.2580    6.8491 C.2       1 <0>         0.0774
     21 N4          4.8292   -1.7151    5.9909 N.pl3     1 <0>        -0.5341
     22 H3          4.4713   -1.2284    5.2320 H         1 <0>         0.4215
     23 Br1         7.2633   -2.0904    9.1986 Br        1 <0>        -0.0153
     24 H4          1.0039    1.9031    0.0027 H         1 <0>         0.0548
     25 H5         -0.5459    1.8868   -0.8726 H         1 <0>         0.0583
     26 H6         -0.5289    1.8773    0.9072 H         1 <0>         0.0554
     27 H7          0.1910   -0.1364   -2.1398 H         1 <0>         0.0661
     28 H8          1.7408   -0.1202   -1.2645 H         1 <0>         0.0631
     29 H9         -0.2836   -2.4046   -1.2575 H         1 <0>         0.0663
     30 H10         1.2492   -2.3788   -2.1620 H         1 <0>         0.0673
     31 H11         1.4937   -3.6240   -0.0317 H         1 <0>         0.0697
     32 H12         2.5015   -2.1569   -0.0334 H         1 <0>         0.0629
     33 H13         1.7647   -0.1336    1.2338 H         1 <0>         0.0678
     34 H14         0.2319   -0.1594    2.1383 H         1 <0>         0.0699
     35 H15         2.1309   -1.9633    2.8550 H         1 <0>         0.3866
     36 H16         1.6683   -5.0849    4.3502 H         1 <0>         0.4463
     37 H17         3.0017   -2.5040    4.2768 H         1 <0>         0.4124
     38 H18         5.1591   -4.2394    8.0423 H         1 <0>         0.1624
     39 H19         6.2522   -0.2907    6.8004 H         1 <0>         0.1869
@<TRIPOS>BOND
     1    1    2 1
     2    1   24 1
     3    1   25 1
     4    1   26 1
     5    2    3 1
     6    2    9 1
     7    2    4 1
     8    4    5 1
     9    4   27 1
    10    4   28 1
    11    5    6 1
    12    5   29 1
    13    5   30 1
    14    6    7 1
    15    6   31 1
    16    6   32 1
    17    7    8 1
    18    7    9 1
    19    7   10 1
    20    9   33 1
    21    9   34 1
    22   10   11 am
    23   10   35 1
    24   11   12 2
    25   11   13 am
    26   13   14 1
    27   13   36 1
    28   14   15 am
    29   14   37 1
    30   15   16 2
    31   15   17 1
    32   17   21 1
    33   17   18 2
    34   18   19 1
    35   18   38 1
    36   19   20 2
    37   19   23 1
    38   20   21 1
    39   20   39 1
    40   21   22 1
@<TRIPOS>MOLECULE
ZINC58236905
   52    55     0     0     0
SMALL
USER_CHARGES

@<TRIPOS>ATOM
      1 C1          0.1692    1.4932   -0.1212 C.3       1 <0>        -0.1583
      2 C2          0.0119   -0.0248   -0.0122 C.3       1 <0>         0.1866
      3 C3          0.7382   -0.5185    1.2124 C.ar      1 <0>        -0.1094
      4 C4          2.1096   -0.6918    1.1782 C.ar      1 <0>        -0.0928
      5 C5          2.7782   -1.1441    2.2989 C.ar      1 <0>        -0.1154
      6 C6          2.0716   -1.4249    3.4609 C.ar      1 <0>         0.1663
      7 C7          0.6944   -1.2498    3.4921 C.ar      1 <0>        -0.1425
      8 C8          0.0324   -0.7918    2.3698 C.ar      1 <0>        -0.0853
      9 N1          2.7460   -1.8839    4.5981 N.am      1 <0>        -0.6864
     10 C9          3.9983   -1.4578    4.8567 C.2       1 <0>         0.7050
     11 O1          4.5061   -0.6027    4.1572 O.2       1 <0>        -0.5738
     12 N2          4.6876   -1.9797    5.8906 N.am      1 <0>        -0.8607
     13 N3          0.5769   -0.6611   -1.2047 N.am      1 <0>        -0.7264
     14 C10        -0.1724   -0.7930   -2.3172 C.2       1 <0>         0.5237
     15 O2         -1.3144   -0.3849   -2.3311 O.2       1 <0>        -0.5316
     16 C11         0.4088   -1.4476   -3.5439 C.3       1 <0>        -0.0972
     17 C12         1.6314   -0.6565   -4.0134 C.3       1 <0>        -0.0747
     18 C13         2.2214   -1.3210   -5.2588 C.3       1 <0>        -0.1069
     19 C14         1.1709   -1.3438   -6.3709 C.3       1 <0>        -0.0874
     20 C15         0.7529    0.0891   -6.7070 C.3       1 <0>        -0.1087
     21 C16         0.1628    0.7536   -5.4616 C.3       1 <0>        -0.0865
     22 C17         1.2133    0.7764   -4.3495 C.3       1 <0>        -0.1100
     23 C18        -1.0597   -0.0375   -4.9922 C.3       1 <0>        -0.1200
     24 C19        -0.6417   -1.4704   -4.6560 C.3       1 <0>        -0.0625
     25 C20        -0.0517   -2.1349   -5.9015 C.3       1 <0>        -0.1095
     26 H1          1.2270    1.7441   -0.2002 H         1 <0>         0.0589
     27 H2         -0.3561    1.8503   -1.0069 H         1 <0>         0.0645
     28 H3         -0.2511    1.9667    0.7661 H         1 <0>         0.0674
     29 H4         -1.0459   -0.2757    0.0668 H         1 <0>         0.0961
     30 H5          2.6585   -0.4736    0.2741 H         1 <0>         0.1231
     31 H6          3.8493   -1.2797    2.2714 H         1 <0>         0.1375
     32 H7          0.1420   -1.4677    4.3942 H         1 <0>         0.1279
     33 H8         -1.0381   -0.6512    2.3947 H         1 <0>         0.1295
     34 H9          2.3122   -2.5086    5.2001 H         1 <0>         0.4083
     35 H10         4.2824   -2.6619    6.4486 H         1 <0>         0.3997
     36 H11         5.5888   -1.6731    6.0767 H         1 <0>         0.4201
     37 H12         1.4903   -0.9875   -1.1937 H         1 <0>         0.3985
     38 H13         0.7066   -2.4684   -3.3045 H         1 <0>         0.0946
     39 H14         2.3798   -0.6402   -3.2211 H         1 <0>         0.0712
     40 H15         3.0924   -0.7574   -5.5932 H         1 <0>         0.0666
     41 H16         2.5192   -2.3419   -5.0193 H         1 <0>         0.0640
     42 H17         1.5913   -1.8173   -7.2582 H         1 <0>         0.0703
     43 H18         1.6239    0.6527   -7.0414 H         1 <0>         0.0602
     44 H19         0.0045    0.0728   -7.4993 H         1 <0>         0.0618
     45 H20        -0.1350    1.7745   -5.7011 H         1 <0>         0.0679
     46 H21         0.7930    1.2499   -3.4622 H         1 <0>         0.0611
     47 H22         2.0843    1.3400   -4.6839 H         1 <0>         0.0644
     48 H23        -1.4801    0.4360   -4.1049 H         1 <0>         0.0905
     49 H24        -1.8082   -0.0537   -5.7844 H         1 <0>         0.0581
     50 H25        -1.5127   -2.0340   -4.3216 H         1 <0>         0.0749
     51 H26        -0.8001   -2.1512   -6.6937 H         1 <0>         0.0661
     52 H27         0.2461   -3.1557   -5.6620 H         1 <0>         0.0616
@<TRIPOS>BOND
     1    1    2 1
     2    1   26 1
     3    1   27 1
     4    1   28 1
     5    2    3 1
     6    2   13 1
     7    2   29 1
     8    3    8 ar
     9    3    4 ar
    10    4    5 ar
    11    4   30 1
    12    5    6 ar
    13    5   31 1
    14    6    7 ar
    15    6    9 1
    16    7    8 ar
    17    7   32 1
    18    8   33 1
    19    9   10 am
    20    9   34 1
    21   10   11 2
    22   10   12 am
    23   12   35 1
    24   12   36 1
    25   13   14 am
    26   13   37 1
    27   14   15 2
    28   14   16 1
    29   16   24 1
    30   16   17 1
    31   16   38 1
    32   17   22 1
    33   17   18 1
    34   17   39 1
    35   18   19 1
    36   18   40 1
    37   18   41 1
    38   19   25 1
    39   19   20 1
    40   19   42 1
    41   20   21 1
    42   20   43 1
    43   20   44 1
    44   21   22 1
    45   21   23 1
    46   21   45 1
    47   22   46 1
    48   22   47 1
    49   23   24 1
    50   23   48 1
    51   23   49 1
    52   24   25 1
    53   24   50 1
    54   25   51 1
    55   25   52 1
@<TRIPOS>MOLECULE
ZINC05528116
   61    63     0     0     0
SMALL
USER_CHARGES
2-hydroxyethyl-bis(hydroxymethyl)-trimethyl-BLAHol
@<TRIPOS>ATOM
      1 C1          4.0327    4.3555   -0.0675 C.3       1 <0>        -0.1511
      2 C2          3.0444    3.1953   -0.0768 C.3       1 <0>        -0.0965
      3 H1          3.5655    2.3280   -0.5278 H         1 <0>         0.0649
      4 C3          1.8589    3.5245   -0.9807 C.3       1 <0>        -0.1125
      5 C4          1.0201    4.6317   -0.3379 C.3       1 <0>        -0.1215
      6 C5          0.4278    4.1363    0.9827 C.3       1 <0>        -0.0489
      7 H2         -0.1728    3.2348    0.7483 H         1 <0>         0.0773
      8 C6          1.5310    3.7103    1.9422 C.3       1 <0>        -0.0245
      9 C7          2.5676    2.7907    1.2995 C.3       1 <0>         0.1351
     10 C8          3.7694    2.5984    2.2566 C.3       1 <0>        -0.1506
     11 C9          4.3184    1.2372    1.7344 C.3       1 <0>        -0.1531
     12 C10         3.0034    0.4771    1.4481 C.3       1 <0>         0.1183
     13 O1          1.9900    1.4632    1.2125 O.3       1 <0>        -0.3429
     14 C11         2.6285   -0.3852    2.6549 C.3       1 <0>        -0.1153
     15 C12         3.6607   -1.5019    2.8241 C.3       1 <0>         0.0768
     16 O2          3.3740   -2.2392    4.0141 O.3       1 <0>        -0.5723
     17 C13         3.1710   -0.4109    0.2140 C.3       1 <0>         0.0707
     18 O3          1.9550   -1.1205   -0.0309 O.3       1 <0>        -0.5573
     19 C14         2.2226    4.9162    2.5713 C.3       1 <0>        -0.1109
     20 C15         1.1982    5.8065    3.2769 C.3       1 <0>        -0.1536
     21 C16         0.2039    6.3261    2.2431 C.3       1 <0>         0.1254
     22 H3          0.7404    6.9156    1.4932 H         1 <0>         0.0440
     23 C17        -0.5256    5.1787    1.5507 C.3       1 <0>        -0.0372
     24 C18        -1.5439    4.5566    2.5152 C.3       1 <0>        -0.1401
     25 C19        -1.3665    5.8012    0.4136 C.3       1 <0>         0.0797
     26 O4         -2.2566    6.7771    0.9589 O.3       1 <0>        -0.5463
     27 O5         -0.7529    7.1729    2.8901 O.3       1 <0>        -0.5415
     28 C20         0.9101    2.8668    3.0829 C.3       1 <0>        -0.1497
     29 H4          4.8698    4.1144    0.5876 H         1 <0>         0.0579
     30 H5          4.4006    4.5275   -1.0790 H         1 <0>         0.0584
     31 H6          3.5343    5.2544    0.2956 H         1 <0>         0.0622
     32 H7          2.2216    3.8635   -1.9519 H         1 <0>         0.0614
     33 H8          1.2421    2.6359   -1.1167 H         1 <0>         0.0693
     34 H9          1.6241    5.5173   -0.1665 H         1 <0>         0.0648
     35 H10         0.2387    4.8662   -1.0653 H         1 <0>         0.0628
     36 H11         3.4509    2.4983    3.2962 H         1 <0>         0.0836
     37 H12         4.5141    3.3806    2.1786 H         1 <0>         0.0887
     38 H13         4.8996    0.7337    2.5043 H         1 <0>         0.0860
     39 H14         4.8981    1.3725    0.8252 H         1 <0>         0.0803
     40 H15         2.6119    0.2333    3.5523 H         1 <0>         0.0721
     41 H16         1.6427   -0.8225    2.4968 H         1 <0>         0.0850
     42 H17         3.6178   -2.1697    1.9637 H         1 <0>         0.0478
     43 H18         4.6575   -1.0672    2.8973 H         1 <0>         0.0437
     44 H19         3.9898   -2.9648    4.1852 H         1 <0>         0.3805
     45 H20         3.4102    0.2090   -0.6500 H         1 <0>         0.0482
     46 H21         3.9787   -1.1225    0.3855 H         1 <0>         0.0521
     47 H22         1.9888   -1.7048   -0.8007 H         1 <0>         0.3767
     48 H23         2.9634    4.5804    3.2985 H         1 <0>         0.0687
     49 H24         2.7164    5.5125    1.8040 H         1 <0>         0.0682
     50 H25         0.6930    5.2742    4.0723 H         1 <0>         0.0774
     51 H26         1.7271    6.6618    3.7180 H         1 <0>         0.0602
     52 H27        -1.0298    4.2072    3.4106 H         1 <0>         0.0595
     53 H28        -2.2868    5.3048    2.7914 H         1 <0>         0.0756
     54 H29        -2.0385    3.7158    2.0288 H         1 <0>         0.0464
     55 H30        -0.7042    6.2773   -0.3094 H         1 <0>         0.0416
     56 H31        -1.9432    5.0198   -0.0814 H         1 <0>         0.0402
     57 H32        -2.8170    7.2099    0.3003 H         1 <0>         0.3683
     58 H33        -0.3645    7.9432    3.3269 H         1 <0>         0.3655
     59 H34         1.7053    2.3961    3.6609 H         1 <0>         0.0524
     60 H35         0.3216    3.5134    3.7338 H         1 <0>         0.0620
     61 H36         0.2663    2.0974    2.6567 H         1 <0>         0.0660
@<TRIPOS>BOND
     1    1    2 1
     2    1   29 1
     3    1   30 1
     4    1   31 1
     5    2    3 1
     6    2    9 1
     7    2    4 1
     8    4    5 1
     9    4   32 1
    10    4   33 1
    11    5    6 1
    12    5   34 1
    13    5   35 1
    14    6    7 1
    15    6   23 1
    16    6    8 1
    17    8    9 1
    18    8   19 1
    19    8   28 1
    20    9   13 1
    21    9   10 1
    22   10   11 1
    23   10   36 1
    24   10   37 1
    25   11   12 1
    26   11   38 1
    27   11   39 1
    28   12   13 1
    29   12   14 1
    30   12   17 1
    31   14   15 1
    32   14   40 1
    33   14   41 1
    34   15   16 1
    35   15   42 1
    36   15   43 1
    37   16   44 1
    38   17   18 1
    39   17   45 1
    40   17   46 1
    41   18   47 1
    42   19   20 1
    43   19   48 1
    44   19   49 1
    45   20   21 1
    46   20   50 1
    47   20   51 1
    48   21   22 1
    49   21   23 1
    50   21   27 1
    51   23   24 1
    52   23   25 1
    53   24   52 1
    54   24   53 1
    55   24   54 1
    56   25   26 1
    57   25   55 1
    58   25   56 1
    59   26   57 1
    60   27   58 1
    61   28   59 1
    62   28   60 1
    63   28   61 1
@<TRIPOS>MOLECULE
ZINC36734236
   32    33     0     0     0
SMALL
USER_CHARGES

@<TRIPOS>ATOM
      1 C1         -1.7591    0.2057    0.1165 C.3       1 <0>        -0.0960
      2 C2         -1.6394    0.9578   -1.1839 C.2       1 <0>         0.1012
      3 C3         -0.8383    0.6300   -2.2290 C.2       1 <0>        -0.0200
      4 C4         -1.0300    1.5879   -3.2350 C.2       1 <0>         0.0927
      5 N1         -1.9114    2.4583   -2.8129 N.2       1 <0>        -0.2775
      6 N2         -2.3186    2.0850   -1.5257 N.pl3     1 <0>        -0.4705
      7 H1         -2.9681    2.5495   -0.9750 H         1 <0>         0.4450
      8 C5         -0.3383    1.6115   -4.5736 C.3       1 <0>        -0.0738
      9 N3          0.0313   -0.4755   -2.2920 N.pl3     1 <0>        -1.0293
     10 S1         -0.1370   -1.5935   -3.5020 S.o2      1 <0>         2.6895
     11 O1         -0.1680   -0.8682   -4.7236 O.2       1 <0>        -0.9397
     12 O2          0.8172   -2.6151   -3.2466 O.2       1 <0>        -0.9569
     13 C6         -1.7264   -2.3303   -3.3133 C.ar      1 <0>        -0.7450
     14 C7         -2.6866   -2.1626   -4.2920 C.ar      1 <0>         0.0401
     15 C8         -3.9340   -2.7400   -4.1452 C.ar      1 <0>        -0.1875
     16 C9         -4.2253   -3.4880   -3.0175 C.ar      1 <0>         0.0641
     17 C10        -3.2690   -3.6590   -2.0345 C.ar      1 <0>        -0.2086
     18 C11        -2.0128   -3.0848   -2.1828 C.ar      1 <0>         0.3254
     19 N4         -1.0417   -3.2612   -1.1946 N.pl3     1 <0>        -0.8613
     20 Cl1        -5.7931   -4.2112   -2.8374 Cl        1 <0>        -0.0541
     21 H2         -2.5398   -0.5499    0.0287 H         1 <0>         0.0848
     22 H3         -0.8094   -0.2778    0.3454 H         1 <0>         0.0863
     23 H4         -2.0148    0.9010    0.9161 H         1 <0>         0.0770
     24 H5         -0.9657    1.1175   -5.3156 H         1 <0>         0.0954
     25 H6         -0.1645    2.6446   -4.8746 H         1 <0>         0.0688
     26 H7          0.6156    1.0895   -4.4989 H         1 <0>         0.0839
     27 H8          0.7290   -0.5823   -1.6266 H         1 <0>         0.4184
     28 H9         -2.4626   -1.5793   -5.1729 H         1 <0>         0.1526
     29 H10        -4.6830   -2.6070   -4.9119 H         1 <0>         0.1415
     30 H11        -3.4964   -4.2423   -1.1545 H         1 <0>         0.1416
     31 H12        -0.1950   -2.7920   -1.2574 H         1 <0>         0.3998
     32 H13        -1.2139   -3.8528   -0.4454 H         1 <0>         0.4122
@<TRIPOS>BOND
     1    1    2 1
     2    1   21 1
     3    1   22 1
     4    1   23 1
     5    2    6 1
     6    2    3 2
     7    3    4 1
     8    3    9 1
     9    4    5 2
    10    4    8 1
    11    5    6 1
    12    6    7 1
    13    8   24 1
    14    8   25 1
    15    8   26 1
    16    9   10 1
    17    9   27 1
    18   10   11 2
    19   10   12 2
    20   10   13 1
    21   13   18 ar
    22   13   14 ar
    23   14   15 ar
    24   14   28 1
    25   15   16 ar
    26   15   29 1
    27   16   17 ar
    28   16   20 1
    29   17   18 ar
    30   17   30 1
    31   18   19 1
    32   19   31 1
    33   19   32 1
@<TRIPOS>MOLECULE
ZINC43408431
   38    40     0     0     0
SMALL
USER_CHARGES

@<TRIPOS>ATOM
      1 C1         -0.0099    1.4005    0.0924 C.ar      1 <0>        -0.0290
      2 C2          1.1994    2.0731    0.0316 C.ar      1 <0>        -0.1670
      3 C3          2.3783    1.3553   -0.0655 C.ar      1 <0>         0.1725
      4 N1          2.3614    0.0320   -0.1013 N.ar      1 <0>        -0.4533
      5 C4          1.2364   -0.6595   -0.0467 C.ar      1 <0>         0.4807
      6 C5         -0.0003    0.0021    0.0531 C.ar      1 <0>        -0.1841
      7 C6         -1.2584   -0.7606    0.1145 C.2       1 <0>         0.3910
      8 S1         -1.2196   -2.4689    0.2192 S.2       1 <0>        -0.5218
      9 N2         -2.4406   -0.1137    0.0881 N.pl3     1 <0>        -0.7709
     10 N3          1.2758   -2.0416   -0.0883 N.pl3     1 <0>        -0.6256
     11 C7          1.1907   -2.8673   -1.3067 C.3       1 <0>         0.1439
     12 C8          1.8824   -4.2014   -0.9306 C.3       1 <0>        -0.1288
     13 C9          1.4351   -4.3793    0.5444 C.3       1 <0>        -0.1089
     14 C10         1.4158   -2.9302    1.0746 C.3       1 <0>         0.1657
     15 H1          0.5695   -2.7953    1.7482 H         1 <0>         0.0989
     16 C11         2.7032   -2.6290    1.7977 C.2       1 <0>         0.4815
     17 O1          3.4394   -1.7569    1.3875 O.2       1 <0>        -0.5086
     18 N4          3.0364   -3.3289    2.9003 N.am      1 <0>        -0.8633
     19 C12         3.5519    2.3129   -0.1151 C.3       1 <0>        -0.0770
     20 C13         2.9422    3.6827   -0.4799 C.3       1 <0>        -0.1192
     21 C14         1.4991    3.5559    0.0527 C.3       1 <0>        -0.0765
     22 H2         -0.9398    1.9437    0.1730 H         1 <0>         0.1324
     23 H3         -2.4626    0.8542    0.0288 H         1 <0>         0.3980
     24 H4         -3.2693   -0.6161    0.1285 H         1 <0>         0.4222
     25 H5          0.1487   -3.0425   -1.5742 H         1 <0>         0.0751
     26 H6          1.7186   -2.3850   -2.1294 H         1 <0>         0.0504
     27 H7          1.5167   -5.0195   -1.5511 H         1 <0>         0.0807
     28 H8          2.9665   -4.1132   -1.0023 H         1 <0>         0.0699
     29 H9          0.4420   -4.8257    0.5951 H         1 <0>         0.0878
     30 H10         2.1578   -4.9799    1.0967 H         1 <0>         0.0740
     31 H11         2.4476   -4.0264    3.2283 H         1 <0>         0.3978
     32 H12         3.8651   -3.1351    3.3657 H         1 <0>         0.3964
     33 H13         4.0399    2.3635    0.8583 H         1 <0>         0.0955
     34 H14         4.2631    2.0000   -0.8795 H         1 <0>         0.0905
     35 H15         3.4723    4.4898    0.0258 H         1 <0>         0.0861
     36 H16         2.9449    3.8328   -1.5595 H         1 <0>         0.0777
     37 H17         0.8073    4.0910   -0.5978 H         1 <0>         0.0800
     38 H18         1.4364    3.9401    1.0708 H         1 <0>         0.0854
@<TRIPOS>BOND
     1    1    6 ar
     2    1    2 ar
     3    1   22 1
     4    2   21 1
     5    2    3 ar
     6    3    4 ar
     7    3   19 1
     8    4    5 ar
     9    5    6 ar
    10    5   10 1
    11    6    7 1
    12    7    8 2
    13    7    9 1
    14    9   23 1
    15    9   24 1
    16   10   14 1
    17   10   11 1
    18   11   12 1
    19   11   25 1
    20   11   26 1
    21   12   13 1
    22   12   27 1
    23   12   28 1
    24   13   14 1
    25   13   29 1
    26   13   30 1
    27   14   15 1
    28   14   16 1
    29   16   17 2
    30   16   18 am
    31   18   31 1
    32   18   32 1
    33   19   20 1
    34   19   33 1
    35   19   34 1
    36   20   21 1
    37   20   35 1
    38   20   36 1
    39   21   37 1
    40   21   38 1
@<TRIPOS>MOLECULE
ZINC50397205
   39    40     0     0     0
SMALL
USER_CHARGES

@<TRIPOS>ATOM
      1 C1         -0.5855    1.5156   -0.7227 C.3       1 <0>        -0.1277
      2 C2         -0.4762    0.0243   -0.5353 C.ar      1 <0>         0.0169
      3 C3         -1.4061   -0.6439    0.2372 C.ar      1 <0>        -0.2123
      4 C4         -1.3049   -2.0184    0.4090 C.ar      1 <0>         0.3118
      5 C5         -0.2679   -2.7166   -0.1972 C.ar      1 <0>        -0.7559
      6 C6          0.6583   -2.0424   -0.9681 C.ar      1 <0>         0.0227
      7 C7          0.5515   -0.6744   -1.1414 C.ar      1 <0>        -0.1600
      8 C8          1.5606    0.0571   -1.9885 C.3       1 <0>        -0.1115
      9 S1         -0.1345   -4.4603    0.0180 S.o2      1 <0>         2.6898
     10 O1          0.9859   -4.8796   -0.7489 O.2       1 <0>        -0.9302
     11 O2         -0.2373   -4.7063    1.4138 O.2       1 <0>        -0.9596
     12 N1         -1.4702   -5.1438   -0.6828 N.pl3     1 <0>        -1.1032
     13 C9         -1.6740   -5.0369   -2.1296 C.3       1 <0>         0.1498
     14 H1         -1.1197   -4.1793   -2.5109 H         1 <0>         0.1176
     15 C10        -3.1650   -4.8488   -2.4205 C.3       1 <0>        -0.1296
     16 C11        -3.3893   -5.0152   -3.9283 C.3       1 <0>        -0.1370
     17 C12        -3.1190   -6.4722   -4.3057 C.3       1 <0>         0.1058
     18 N2         -1.8281   -6.9033   -3.7841 N.am      1 <0>        -0.7200
     19 C13        -1.1787   -6.2877   -2.7969 C.2       1 <0>         0.4952
     20 O3         -0.1292   -6.7632   -2.4183 O.2       1 <0>        -0.5159
     21 N3         -2.2432   -2.6972    1.1898 N.pl3     1 <0>        -0.8670
     22 H2         -1.2010    1.7278   -1.5969 H         1 <0>         0.0801
     23 H3         -1.0436    1.9602    0.1608 H         1 <0>         0.0718
     24 H4          0.4091    1.9374   -0.8675 H         1 <0>         0.0767
     25 H5         -2.2107   -0.0981    0.7073 H         1 <0>         0.1302
     26 H6          1.4648   -2.5845   -1.4393 H         1 <0>         0.1427
     27 H7          2.3931    0.3809   -1.3638 H         1 <0>         0.0687
     28 H8          1.9296   -0.6077   -2.7695 H         1 <0>         0.0671
     29 H9          1.0891    0.9274   -2.4451 H         1 <0>         0.0680
     30 H10        -2.1177   -5.6149   -0.1353 H         1 <0>         0.4182
     31 H11        -3.7419   -5.5983   -1.8788 H         1 <0>         0.0813
     32 H12        -3.4763   -3.8511   -2.1111 H         1 <0>         0.0866
     33 H13        -4.4195   -4.7585   -4.1753 H         1 <0>         0.0933
     34 H14        -2.7067   -4.3635   -4.4737 H         1 <0>         0.0779
     35 H15        -3.9044   -7.1037   -3.8904 H         1 <0>         0.0685
     36 H16        -3.1195   -6.5692   -5.3914 H         1 <0>         0.0809
     37 H17        -1.4170   -7.6879   -4.1795 H         1 <0>         0.4025
     38 H18        -2.9184   -2.2003    1.6779 H         1 <0>         0.4093
     39 H19        -2.2196   -3.6654    1.2441 H         1 <0>         0.3969
@<TRIPOS>BOND
     1    1    2 1
     2    1   22 1
     3    1   23 1
     4    1   24 1
     5    2    7 ar
     6    2    3 ar
     7    3    4 ar
     8    3   25 1
     9    4    5 ar
    10    4   21 1
    11    5    6 ar
    12    5    9 1
    13    6    7 ar
    14    6   26 1
    15    7    8 1
    16    8   27 1
    17    8   28 1
    18    8   29 1
    19    9   10 2
    20    9   11 2
    21    9   12 1
    22   12   13 1
    23   12   30 1
    24   13   14 1
    25   13   19 1
    26   13   15 1
    27   15   16 1
    28   15   31 1
    29   15   32 1
    30   16   17 1
    31   16   33 1
    32   16   34 1
    33   17   18 1
    34   17   35 1
    35   17   36 1
    36   18   19 am
    37   18   37 1
    38   19   20 2
    39   21   38 1
    40   21   39 1
@<TRIPOS>MOLECULE
ZINC61079431
   35    36     0     0     0
SMALL
USER_CHARGES

@<TRIPOS>ATOM
      1 C1          2.7400    5.1880    1.0670 C.ar      1 <0>        -0.1461
      2 C2          2.4463    4.3153    0.0168 C.ar      1 <0>        -0.0595
      3 C3          3.3609    4.1517   -1.0264 C.ar      1 <0>        -0.0872
      4 C4          4.5510    4.8519   -1.0171 C.ar      1 <0>        -0.0767
      5 C5          4.8416    5.7165    0.0237 C.ar      1 <0>         0.0443
      6 C6          3.9353    5.8857    1.0680 C.ar      1 <0>         0.2053
      7 N1          4.2335    6.7610    2.1181 N.pl3     1 <0>        -0.8632
      8 F1          6.0080    6.3983    0.0271 F         1 <0>        -0.1303
      9 Br1         2.9695    2.9711   -2.4508 Br        1 <0>        -0.0180
     10 C7          1.1730    3.5673    0.0095 C.2       1 <0>         0.5601
     11 O1          1.1798    2.3566   -0.1011 O.2       1 <0>        -0.5001
     12 N2          0.0033    4.2268    0.1255 N.am      1 <0>        -0.6028
     13 C8         -1.2619    3.4906    0.2512 C.3       1 <0>         0.1088
     14 C9         -2.2311    3.9884   -0.8256 C.3       1 <0>        -0.1352
     15 C10        -2.3744    5.5080   -0.7141 C.3       1 <0>        -0.1017
     16 C11        -1.0137    6.1688   -0.9462 C.3       1 <0>        -0.1254
     17 H1         -0.6374    5.8908   -1.9307 H         1 <0>         0.1061
     18 C12        -0.0301    5.6957    0.1349 C.3       1 <0>         0.1145
     19 C13        -1.1621    7.6665   -0.8690 C.2       1 <0>         0.5240
     20 O2         -2.2492    8.1577   -0.6500 O.2       1 <0>        -0.5336
     21 N3         -0.0868    8.4601   -1.0435 N.am      1 <0>        -0.8551
     22 H2          2.0344    5.3214    1.8736 H         1 <0>         0.1454
     23 H3          5.2572    4.7241   -1.8241 H         1 <0>         0.1536
     24 H4          3.6025    6.8788    2.8453 H         1 <0>         0.4077
     25 H5          5.0712    7.2500    2.1189 H         1 <0>         0.4081
     26 H6         -1.0796    2.4247    0.1141 H         1 <0>         0.0994
     27 H7         -1.6904    3.6662    1.2379 H         1 <0>         0.0735
     28 H8         -1.8434    3.7309   -1.8112 H         1 <0>         0.0710
     29 H9         -3.2049    3.5198   -0.6834 H         1 <0>         0.0845
     30 H10        -3.0825    5.8620   -1.4634 H         1 <0>         0.0775
     31 H11        -2.7387    5.7664    0.2802 H         1 <0>         0.0746
     32 H12        -0.3602    6.0474    1.1123 H         1 <0>         0.0796
     33 H13         0.9652    6.0852   -0.0790 H         1 <0>         0.0918
     34 H14         0.7826    8.0673   -1.2187 H         1 <0>         0.4009
     35 H15        -0.1824    9.4241   -0.9938 H         1 <0>         0.4040
@<TRIPOS>BOND
     1    1    6 ar
     2    1    2 ar
     3    1   22 1
     4    2    3 ar
     5    2   10 1
     6    3    4 ar
     7    3    9 1
     8    4    5 ar
     9    4   23 1
    10    5    6 ar
    11    5    8 1
    12    6    7 1
    13    7   24 1
    14    7   25 1
    15   10   11 2
    16   10   12 am
    17   12   18 1
    18   12   13 1
    19   13   14 1
    20   13   26 1
    21   13   27 1
    22   14   15 1
    23   14   28 1
    24   14   29 1
    25   15   16 1
    26   15   30 1
    27   15   31 1
    28   16   17 1
    29   16   18 1
    30   16   19 1
    31   18   32 1
    32   18   33 1
    33   19   20 2
    34   19   21 am
    35   21   34 1
    36   21   35 1
@<TRIPOS>MOLECULE
ZINC08783364
   42    45     0     0     0
SMALL
USER_CHARGES
amino-butyl-oxo-BLAHcarbonitrile
@<TRIPOS>ATOM
      1 C1          4.5596    7.5029   -2.2497 C.3       1 <0>        -0.1542
      2 C2          4.4592    6.7873   -0.9011 C.3       1 <0>        -0.1239
      3 C3          3.6873    5.4778   -1.0748 C.3       1 <0>        -0.1185
      4 C4          3.5869    4.7622    0.2738 C.3       1 <0>        -0.0194
      5 C5          2.8267    3.4723    0.1026 C.2       1 <0>         0.1954
      6 N1          3.3548    2.3136   -0.1862 N.2       1 <0>        -0.4324
      7 C6          2.3786    1.4053   -0.2585 C.2       1 <0>        -0.0110
      8 C7          1.2054    2.0435    0.0015 C.2       1 <0>         0.2088
      9 O1          1.4932    3.3290    0.2221 O.3       1 <0>        -0.1882
     10 N2         -0.0166    1.3733    0.0096 N.pl3     1 <0>        -0.6137
     11 C8          0.0021   -0.0041    0.0020 C.2       1 <0>         0.5214
     12 C9          1.1304   -0.7140   -0.2548 C.2       1 <0>        -0.2538
     13 C10         2.4501   -0.0642   -0.5613 C.3       1 <0>         0.1392
     14 C11         2.8529   -0.3052   -1.9818 C.ar      1 <0>        -0.1308
     15 C12         2.2554    0.0447   -3.1735 C.ar      1 <0>        -0.0447
     16 C13         2.9029   -0.3418   -4.3419 C.ar      1 <0>        -0.1473
     17 C14         4.0909   -1.0434   -4.3066 C.ar      1 <0>        -0.0807
     18 C15         4.6982   -1.3986   -3.1125 C.ar      1 <0>        -0.1407
     19 C16         4.0576   -1.0173   -1.9323 C.ar      1 <0>         0.1567
     20 N3          4.4337   -1.2358   -0.6188 N.am      1 <0>        -0.6586
     21 C17         3.5495   -0.7108    0.2548 C.2       1 <0>         0.5442
     22 O2          3.6216   -0.7495    1.4649 O.2       1 <0>        -0.4808
     23 C18         1.0600   -2.1441   -0.2321 C.1       1 <0>         0.2693
     24 N4          1.0041   -3.2785   -0.2142 N.1       1 <0>        -0.4349
     25 N5         -1.1632   -0.6840    0.2643 N.pl3     1 <0>        -0.8464
     26 H1          5.0827    6.8646   -2.9617 H         1 <0>         0.0556
     27 H2          3.5581    7.7182   -2.6222 H         1 <0>         0.0541
     28 H3          5.1095    8.4359   -2.1259 H         1 <0>         0.0564
     29 H4          3.9361    7.4257   -0.1891 H         1 <0>         0.0652
     30 H5          5.4607    6.5721   -0.5285 H         1 <0>         0.0670
     31 H6          4.2105    4.8394   -1.7868 H         1 <0>         0.0741
     32 H7          2.6858    5.6930   -1.4474 H         1 <0>         0.0677
     33 H8          3.0638    5.4005    0.9858 H         1 <0>         0.0965
     34 H9          4.5884    4.5469    0.6463 H         1 <0>         0.1122
     35 H10        -0.8546    1.8618    0.0162 H         1 <0>         0.4272
     36 H11         1.3262    0.5947   -3.1987 H         1 <0>         0.1298
     37 H12         2.4673   -0.0874   -5.2968 H         1 <0>         0.1257
     38 H13         4.5616   -1.3236   -5.2374 H         1 <0>         0.1276
     39 H14         5.6282   -1.9475   -3.0957 H         1 <0>         0.1353
     40 H15         5.2382   -1.7101   -0.3569 H         1 <0>         0.4163
     41 H16        -1.9793   -0.1938    0.4503 H         1 <0>         0.4092
     42 H17        -1.1695   -1.6539    0.2633 H         1 <0>         0.4250
@<TRIPOS>BOND
     1    1    2 1
     2    1   26 1
     3    1   27 1
     4    1   28 1
     5    2    3 1
     6    2   29 1
     7    2   30 1
     8    3    4 1
     9    3   31 1
    10    3   32 1
    11    4    5 1
    12    4   33 1
    13    4   34 1
    14    5    9 1
    15    5    6 2
    16    6    7 1
    17    7   13 1
    18    7    8 2
    19    8    9 1
    20    8   10 1
    21   10   11 1
    22   10   35 1
    23   11   12 2
    24   11   25 1
    25   12   13 1
    26   12   23 1
    27   13   21 1
    28   13   14 1
    29   14   19 ar
    30   14   15 ar
    31   15   16 ar
    32   15   36 1
    33   16   17 ar
    34   16   37 1
    35   17   18 ar
    36   17   38 1
    37   18   19 ar
    38   18   39 1
    39   19   20 1
    40   20   21 am
    41   20   40 1
    42   21   22 2
    43   23   24 3
    44   25   41 1
    45   25   42 1
@<TRIPOS>MOLECULE
ZINC31161224
   47    51     0     0     0
SMALL
USER_CHARGES
dimethylBLAHtetrol
@<TRIPOS>ATOM
      1 C1          8.6626    8.8069    2.6080 C.3       1 <0>        -0.1412
      2 C2          7.8222    7.5385    2.7687 C.3       1 <0>         0.1310
      3 C3          8.6380    6.3177    2.3235 C.3       1 <0>         0.0980
      4 H1          9.6234    6.2769    2.8106 H         1 <0>         0.0782
      5 C4          7.8099    5.0618    2.6026 C.3       1 <0>         0.1374
      6 H2          8.2726    4.1677    2.1593 H         1 <0>         0.0675
      7 C5          6.4090    5.2454    2.0716 C.ar      1 <0>        -0.2235
      8 C6          5.6334    4.1014    1.8900 C.ar      1 <0>        -0.0219
      9 C7          4.3538    4.2606    1.4140 C.ar      1 <0>        -0.1959
     10 C8          3.8339    5.5368    1.1032 C.ar      1 <0>         0.1458
     11 C9          4.6100    6.6701    1.2918 C.ar      1 <0>        -0.1670
     12 C10         5.9089    6.5014    1.7793 C.ar      1 <0>         0.2031
     13 O1          6.6592    7.6245    1.9456 O.3       1 <0>        -0.2956
     14 O2          2.5668    5.4404    0.6076 O.3       1 <0>        -0.2864
     15 C11         2.4591    4.1377    0.0486 C.3       1 <0>         0.1356
     16 H3          2.7408    4.2678   -1.0067 H         1 <0>         0.1198
     17 C12         3.2577    3.3080    1.1137 C.3       1 <0>        -0.1002
     18 H4          2.8367    2.9964    2.0810 H         1 <0>         0.1140
     19 C13         3.5706    1.9775    0.4759 C.3       1 <0>         0.0758
     20 O3          2.3656    1.4158   -0.0586 O.3       1 <0>        -0.3104
     21 C14         1.1779    2.0664    0.0019 C.ar      1 <0>         0.1422
     22 C15         1.1255    3.4673    0.0252 C.ar      1 <0>        -0.1732
     23 C16        -0.0716    4.1331    0.0337 C.ar      1 <0>        -0.0582
     24 C17        -1.2596    3.4197    0.0331 C.ar      1 <0>        -0.1497
     25 C18        -1.2294    2.0336    0.0189 C.ar      1 <0>         0.1059
     26 C19        -0.0164    1.3567    0.0095 C.ar      1 <0>         0.0372
     27 O4          0.0021   -0.0041    0.0020 O.3       1 <0>        -0.4859
     28 O5         -2.3946    1.3322    0.0201 O.3       1 <0>        -0.4915
     29 O6          7.7573    4.8308    4.0119 O.3       1 <0>        -0.5802
     30 O7          8.9186    6.4093    0.9253 O.3       1 <0>        -0.5772
     31 C20         7.4074    7.3767    4.2325 C.3       1 <0>        -0.1782
     32 H5          9.5576    8.7367    3.2437 H         1 <0>         0.0786
     33 H6          8.0672    9.6817    2.9083 H         1 <0>         0.0698
     34 H7          8.9672    8.9141    1.5565 H         1 <0>         0.0749
     35 H8          6.0256    3.1208    2.1159 H         1 <0>         0.1336
     36 H9          4.2227    7.6532    1.0686 H         1 <0>         0.1464
     37 H10         4.3012    2.1218   -0.3336 H         1 <0>         0.0873
     38 H11         3.9907    1.2981    1.2322 H         1 <0>         0.0933
     39 H12        -0.0895    5.2129    0.0405 H         1 <0>         0.1408
     40 H13        -2.2052    3.9413    0.0391 H         1 <0>         0.1391
     41 H14        -0.9429   -0.5670    0.0080 H         1 <0>         0.4123
     42 H15        -2.3746    0.2324    0.0089 H         1 <0>         0.4180
     43 H16         7.2027    3.9671    4.4073 H         1 <0>         0.4079
     44 H17         9.4976    5.6175    0.4275 H         1 <0>         0.4107
     45 H18         6.8036    6.4640    4.3437 H         1 <0>         0.0928
     46 H19         6.8142    8.2491    4.5440 H         1 <0>         0.0644
     47 H20         8.3062    7.3007    4.8620 H         1 <0>         0.0747
@<TRIPOS>BOND
     1    1    2 1
     2    1   32 1
     3    1   33 1
     4    1   34 1
     5    2   13 1
     6    2    3 1
     7    2   31 1
     8    3    4 1
     9    3    5 1
    10    3   30 1
    11    5    6 1
    12    5    7 1
    13    5   29 1
    14    7   12 ar
    15    7    8 ar
    16    8    9 ar
    17    8   35 1
    18    9   17 1
    19    9   10 ar
    20   10   11 ar
    21   10   14 1
    22   11   12 ar
    23   11   36 1
    24   12   13 1
    25   14   15 1
    26   15   16 1
    27   15   22 1
    28   15   17 1
    29   17   18 1
    30   17   19 1
    31   19   20 1
    32   19   37 1
    33   19   38 1
    34   20   21 1
    35   21   26 ar
    36   21   22 ar
    37   22   23 ar
    38   23   24 ar
    39   23   39 1
    40   24   25 ar
    41   24   40 1
    42   25   26 ar
    43   25   28 1
    44   26   27 1
    45   27   41 1
    46   28   42 1
    47   29   43 1
    48   30   44 1
    49   31   45 1
    50   31   46 1
    51   31   47 1
@<TRIPOS>MOLECULE
ZINC38008788
   33    34     0     0     0
SMALL
USER_CHARGES

@<TRIPOS>ATOM
      1 C1         -0.0184    1.5028    0.0103 C.3       1 <0>        -0.0816
      2 C2          0.0021   -0.0041    0.0020 C.ar      1 <0>        -0.1389
      3 C3          0.0057   -0.6887   -1.1977 C.ar      1 <0>        -0.0701
      4 C4          0.0244   -2.0709   -1.2068 C.ar      1 <0>        -0.1956
      5 C5          0.0395   -2.7737   -0.0143 C.ar      1 <0>         0.0201
      6 C6          0.0355   -2.0945    1.1892 C.ar      1 <0>        -0.2489
      7 C7          0.0230   -0.7055    1.2007 C.ar      1 <0>         0.2792
      8 N1          0.0256   -0.0156    2.4152 N.2       1 <0>        -1.0670
      9 S1          0.0505   -0.8535    3.8434 S.o2      1 <0>         2.5663
     10 O1         -1.1849   -1.5506    3.9269 O.2       1 <0>        -0.9991
     11 O2          1.3054   -1.5176    3.9028 O.2       1 <0>        -0.9946
     12 C8          0.0474    0.3345    5.1446 C.ar      1 <0>        -0.4657
     13 C9          1.2395    0.8334    5.6534 C.ar      1 <0>        -0.0835
     14 C10         1.2029    1.7636    6.6725 C.ar      1 <0>         0.1255
     15 N2          0.0527    2.1819    7.1661 N.ar      1 <0>        -0.4778
     16 C11        -1.1046    1.7301    6.7083 C.ar      1 <0>         0.4391
     17 C12        -1.1423    0.7955    5.6782 C.ar      1 <0>        -0.0935
     18 N3         -2.2926    2.1978    7.2579 N.pl3     1 <0>        -0.5473
     19 N4         -2.2627    3.1195    8.2656 N.3       1 <0>        -0.6122
     20 Cl1         0.0630   -4.5094   -0.0306 Cl        1 <0>        -0.0959
     21 H1          1.0042    1.8801    0.0026 H         1 <0>         0.0524
     22 H2         -0.5455    1.8639   -0.8728 H         1 <0>         0.0447
     23 H3         -0.5286    1.8543    0.9071 H         1 <0>         0.0702
     24 H4         -0.0064   -0.1433   -2.1298 H         1 <0>         0.1205
     25 H5          0.0269   -2.6036   -2.1463 H         1 <0>         0.1192
     26 H6          0.0470   -2.6428    2.1196 H         1 <0>         0.1086
     27 H7          2.1856    0.4967    5.2559 H         1 <0>         0.1933
     28 H8          2.1275    2.1538    7.0713 H         1 <0>         0.2132
     29 H9         -2.0876    0.4319    5.3034 H         1 <0>         0.1923
     30 H10        -3.1429    1.8697    6.9258 H         1 <0>         0.4432
     31 H11        -1.7457    3.9407    7.9893 H         1 <0>         0.3477
     32 H12        -3.1964    3.3625    8.5612 H         1 <0>         0.3927
     33 H13         0.0552    2.8362    7.8821 H         1 <0>         0.4433
@<TRIPOS>BOND
     1    1    2 1
     2    1   21 1
     3    1   22 1
     4    1   23 1
     5    2    7 ar
     6    2    3 ar
     7    3    4 ar
     8    3   24 1
     9    4    5 ar
    10    4   25 1
    11    5    6 ar
    12    5   20 1
    13    6    7 ar
    14    6   26 1
    15    7    8 1
    16    8    9 1
    17    9   10 2
    18    9   11 2
    19    9   12 1
    20   12   17 ar
    21   12   13 ar
    22   13   14 ar
    23   13   27 1
    24   14   15 ar
    25   14   28 1
    26   15   16 ar
    27   15   33 1
    28   16   17 ar
    29   16   18 1
    30   17   29 1
    31   18   19 1
    32   18   30 1
    33   19   31 1
    34   19   32 1
@<TRIPOS>MOLECULE
ZINC48954883
   30    31     0     0     0
SMALL
USER_CHARGES

@<TRIPOS>ATOM
      1 C1          1.0715   -0.4531   -0.7676 C.ar      1 <0>        -0.1137
      2 C2          2.2558    0.2574   -0.7802 C.ar      1 <0>        -0.0681
      3 C3          2.3768    1.4162   -0.0340 C.ar      1 <0>        -0.1050
      4 C4          1.3125    1.8662    0.7271 C.ar      1 <0>        -0.0680
      5 C5          0.1261    1.1593    0.7437 C.ar      1 <0>        -0.1378
      6 C6          0.0017   -0.0035   -0.0050 C.ar      1 <0>         0.1748
      7 N1         -1.1998   -0.7217    0.0096 N.am      1 <0>        -0.6802
      8 C7         -1.1834   -2.0649   -0.0995 C.2       1 <0>         0.7189
      9 O1         -0.1236   -2.6608   -0.1130 O.2       1 <0>        -0.5439
     10 N2         -2.3416   -2.7476   -0.1936 N.am      1 <0>        -0.5350
     11 N3         -3.5627   -2.0609   -0.1781 N.am      1 <0>        -0.5320
     12 C8         -4.7210   -2.7436   -0.2722 C.2       1 <0>         0.7148
     13 O2         -5.7807   -2.1477   -0.2587 O.2       1 <0>        -0.5009
     14 N4         -4.7045   -4.0868   -0.3813 N.am      1 <0>        -0.6272
     15 C9         -5.8991   -4.7909   -0.4784 C.2       1 <0>         0.2776
     16 N5         -7.1273   -4.3198   -0.4866 N.2       1 <0>        -0.5177
     17 C10        -8.1672   -5.1275   -0.5867 C.2       1 <0>         0.0623
     18 C11        -7.9096   -6.4549   -0.6800 C.2       1 <0>        -0.2387
     19 S1         -6.1251   -6.4525   -0.6216 S.3       1 <0>         0.1243
     20 Br1         3.9998    2.3863   -0.0538 Br        1 <0>        -0.0464
     21 H1          0.9761   -1.3552   -1.3537 H         1 <0>         0.1458
     22 H2          3.0883   -0.0921   -1.3729 H         1 <0>         0.1388
     23 H3          1.4097    2.7708    1.3089 H         1 <0>         0.1396
     24 H4         -0.7040    1.5106    1.3385 H         1 <0>         0.1371
     25 H5         -2.0442   -0.2526    0.0983 H         1 <0>         0.4071
     26 H6         -2.3298   -3.7143   -0.2721 H         1 <0>         0.4348
     27 H7         -3.5746   -1.0942   -0.0995 H         1 <0>         0.4380
     28 H8         -3.8591   -4.5622   -0.3921 H         1 <0>         0.4193
     29 H9         -9.1780   -4.7472   -0.5937 H         1 <0>         0.1791
     30 H10        -8.5948   -7.2850   -0.7688 H         1 <0>         0.2022
@<TRIPOS>BOND
     1    1    6 ar
     2    1    2 ar
     3    1   21 1
     4    2    3 ar
     5    2   22 1
     6    3    4 ar
     7    3   20 1
     8    4    5 ar
     9    4   23 1
    10    5    6 ar
    11    5   24 1
    12    6    7 1
    13    7    8 am
    14    7   25 1
    15    8    9 2
    16    8   10 am
    17   10   11 1
    18   10   26 1
    19   11   12 am
    20   11   27 1
    21   12   13 2
    22   12   14 am
    23   14   15 1
    24   14   28 1
    25   15   19 1
    26   15   16 2
    27   16   17 1
    28   17   18 2
    29   17   29 1
    30   18   19 1
    31   18   30 1
@<TRIPOS>MOLECULE
ZINC59416588
   43    46     0     0     0
SMALL
USER_CHARGES

@<TRIPOS>ATOM
      1 C1         -0.0184    1.5028    0.0103 C.3       1 <0>        -0.0797
      2 C2          0.0021   -0.0041    0.0020 C.2       1 <0>         0.1279
      3 C3          0.0080   -0.8116   -1.1277 C.2       1 <0>        -0.2523
      4 C4          0.0276   -2.1154   -0.7172 C.2       1 <0>         0.2754
      5 N1          0.0351   -2.1158    0.6337 N.pl3     1 <0>        -0.3014
      6 N2          0.0231   -0.7786    1.0610 N.2       1 <0>        -0.2589
      7 C5          0.0553   -3.2477    1.4600 C.ar      1 <0>         0.1614
      8 C6         -0.6159   -4.4014    1.0755 C.ar      1 <0>        -0.1316
      9 C7         -0.5957   -5.5171    1.8896 C.ar      1 <0>        -0.0794
     10 C8          0.0915   -5.4886    3.0884 C.ar      1 <0>        -0.1418
     11 C9          0.7638   -4.3388    3.4775 C.ar      1 <0>         0.1281
     12 C10         0.7504   -3.2190    2.6602 C.ar      1 <0>        -0.1314
     13 O1          1.4392   -4.3121    4.6564 O.3       1 <0>        -0.4925
     14 O2          0.0349   -3.1571   -1.5851 O.3       1 <0>        -0.2258
     15 C11        -0.2537   -2.8957   -2.8763 C.2       1 <0>         0.4384
     16 C12        -0.2906   -1.6511   -3.4018 C.2       1 <0>        -0.2577
     17 C13        -0.0036   -0.4178   -2.5823 C.3       1 <0>         0.1221
     18 H1         -0.7798    0.3276   -2.7553 H         1 <0>         0.1004
     19 C14         1.3396    0.1469   -2.9669 C.ar      1 <0>        -0.0561
     20 C15         2.4760   -0.6322   -2.8490 C.ar      1 <0>        -0.1088
     21 C16         3.7097   -0.1171   -3.2009 C.ar      1 <0>        -0.1019
     22 C17         3.8101    1.1782   -3.6711 C.ar      1 <0>        -0.1458
     23 C18         2.6717    1.9618   -3.7903 C.ar      1 <0>         0.1073
     24 C19         1.4339    1.4404   -3.4421 C.ar      1 <0>        -0.1357
     25 O3          2.7679    3.2361   -4.2526 O.3       1 <0>        -0.4994
     26 C20        -0.6137   -1.4976   -4.7883 C.1       1 <0>         0.2707
     27 N3         -0.8701   -1.3758   -5.8883 N.1       1 <0>        -0.4360
     28 N4         -0.5253   -3.9557   -3.7053 N.pl3     1 <0>        -0.8297
     29 H2          1.0042    1.8801    0.0026 H         1 <0>         0.0875
     30 H3         -0.5455    1.8639   -0.8728 H         1 <0>         0.0851
     31 H4         -0.5286    1.8543    0.9071 H         1 <0>         0.0814
     32 H5         -1.1543   -4.4259    0.1396 H         1 <0>         0.1324
     33 H6         -1.1182   -6.4132    1.5889 H         1 <0>         0.1409
     34 H7          0.1050   -6.3622    3.7232 H         1 <0>         0.1387
     35 H8          1.2765   -2.3246    2.9595 H         1 <0>         0.1437
     36 H9          2.3626   -4.5910    4.5872 H         1 <0>         0.3964
     37 H10         2.3997   -1.6447   -2.4810 H         1 <0>         0.1146
     38 H11         4.5957   -0.7276   -3.1079 H         1 <0>         0.1252
     39 H12         4.7742    1.5804   -3.9453 H         1 <0>         0.1272
     40 H13         0.5455    2.0469   -3.5385 H         1 <0>         0.1298
     41 H14         2.6819    3.3138   -5.2126 H         1 <0>         0.3911
     42 H15        -0.5063   -4.8609   -3.3572 H         1 <0>         0.4118
     43 H16        -0.7363   -3.7994   -4.6391 H         1 <0>         0.4285
@<TRIPOS>BOND
     1    1    2 1
     2    1   29 1
     3    1   30 1
     4    1   31 1
     5    2    6 2
     6    2    3 1
     7    3   17 1
     8    3    4 2
     9    4    5 1
    10    4   14 1
    11    5    6 1
    12    5    7 1
    13    7   12 ar
    14    7    8 ar
    15    8    9 ar
    16    8   32 1
    17    9   10 ar
    18    9   33 1
    19   10   11 ar
    20   10   34 1
    21   11   12 ar
    22   11   13 1
    23   12   35 1
    24   13   36 1
    25   14   15 1
    26   15   16 2
    27   15   28 1
    28   16   17 1
    29   16   26 1
    30   17   18 1
    31   17   19 1
    32   19   24 ar
    33   19   20 ar
    34   20   21 ar
    35   20   37 1
    36   21   22 ar
    37   21   38 1
    38   22   23 ar
    39   22   39 1
    40   23   24 ar
    41   23   25 1
    42   24   40 1
    43   25   41 1
    44   26   27 3
    45   28   42 1
    46   28   43 1
@<TRIPOS>MOLECULE
ZINC04594173
   37    39     0     0     0
SMALL
USER_CHARGES
4,10-diamino-2-phenyl-8-prop-2-ynylsulfanyl-5-oxa-7,9-diazabicyclo[4.4.0]deca-3,7,9,11-tetraene-3-carbonitrile
@<TRIPOS>ATOM
      1 C1        -10.5122    0.3659    2.7767 C.1       1 <0>        -0.1512
      2 C2         -9.5177    0.8892    2.4368 C.1       1 <0>        -0.1981
      3 C3         -8.2709    1.5454    2.0106 C.3       1 <0>        -0.0010
      4 S1         -7.0353    0.2868    1.6040 S.3       1 <0>         0.0552
      5 C4         -5.6862    1.3211    1.1402 C.ar      1 <0>         0.3705
      6 N1         -5.8394    2.6368    1.1807 N.ar      1 <0>        -0.5889
      7 C5         -4.8416    3.4475    0.8362 C.ar      1 <0>         0.4970
      8 C6         -3.6307    2.8909    0.4317 C.ar      1 <0>        -0.2987
      9 C7         -3.5066    1.5117    0.4027 C.ar      1 <0>         0.4195
     10 N2         -4.5467    0.7620    0.7603 N.ar      1 <0>        -0.5381
     11 O1         -2.3510    0.9268    0.0182 O.3       1 <0>        -0.2283
     12 C8         -1.2089    1.6359    0.0167 C.2       1 <0>         0.4456
     13 C9         -1.2023    2.9895    0.0296 C.2       1 <0>        -0.2660
     14 C10        -2.4835    3.7769    0.0347 C.3       1 <0>         0.1013
     15 H1         -2.3976    4.5979    0.7465 H         1 <0>         0.0938
     16 C11        -2.7357    4.3339   -1.3427 C.ar      1 <0>        -0.0803
     17 C12        -2.8806    3.4781   -2.4185 C.ar      1 <0>        -0.0998
     18 C13        -3.1163    3.9889   -3.6812 C.ar      1 <0>        -0.1145
     19 C14        -3.1981    5.3559   -3.8696 C.ar      1 <0>        -0.1182
     20 C15        -3.0480    6.2120   -2.7946 C.ar      1 <0>        -0.1139
     21 C16        -2.8166    5.7010   -1.5312 C.ar      1 <0>        -0.1190
     22 C17         0.0493    3.6853    0.0336 C.1       1 <0>         0.2715
     23 N3          1.0422    4.2373    0.0368 N.1       1 <0>        -0.4356
     24 N4         -0.0111    0.9658    0.0074 N.pl3     1 <0>        -0.8241
     25 N5         -5.0051    4.8230    0.8790 N.pl3     1 <0>        -0.8201
     26 H2        -11.4016   -0.1021    3.0806 H         1 <0>         0.2263
     27 H3         -7.8967    2.1742    2.8185 H         1 <0>         0.1201
     28 H4         -8.4658    2.1604    1.1321 H         1 <0>         0.1200
     29 H5         -2.8129    2.4102   -2.2720 H         1 <0>         0.1137
     30 H6         -3.2338    3.3201   -4.5210 H         1 <0>         0.1226
     31 H7         -3.3796    5.7551   -4.8566 H         1 <0>         0.1226
     32 H8         -3.1120    7.2800   -2.9418 H         1 <0>         0.1239
     33 H9         -2.6994    6.3698   -0.6914 H         1 <0>         0.1208
     34 H10         0.0021   -0.0041    0.0020 H         1 <0>         0.4149
     35 H11         0.8223    1.4622    0.0021 H         1 <0>         0.4286
     36 H12        -5.8520    5.2022    1.1616 H         1 <0>         0.4134
     37 H13        -4.2727    5.4066    0.6262 H         1 <0>         0.4146
@<TRIPOS>BOND
     1    1    2 3
     2    1   26 1
     3    2    3 1
     4    3    4 1
     5    3   27 1
     6    3   28 1
     7    4    5 1
     8    5   10 ar
     9    5    6 ar
    10    6    7 ar
    11    7    8 ar
    12    7   25 1
    13    8   14 1
    14    8    9 ar
    15    9   10 ar
    16    9   11 1
    17   11   12 1
    18   12   13 2
    19   12   24 1
    20   13   14 1
    21   13   22 1
    22   14   15 1
    23   14   16 1
    24   16   21 ar
    25   16   17 ar
    26   17   18 ar
    27   17   29 1
    28   18   19 ar
    29   18   30 1
    30   19   20 ar
    31   19   31 1
    32   20   21 ar
    33   20   32 1
    34   21   33 1
    35   22   23 3
    36   24   34 1
    37   24   35 1
    38   25   36 1
    39   25   37 1
@<TRIPOS>MOLECULE
ZINC26803001
   39    41     0     0     0
SMALL
USER_CHARGES
[(dimethyl-methylsulfanyl-BLAHyl)amino]thiourea
@<TRIPOS>ATOM
      1 C1         -0.3762   -5.8528   -3.1030 C.3       1 <0>        -0.1876
      2 C2         -0.5357   -6.2796   -1.6424 C.3       1 <0>         0.1172
      3 C3         -0.9948   -5.0790   -0.8098 C.3       1 <0>        -0.1019
      4 C4          0.1657   -4.0903   -0.7253 C.2       1 <0>        -0.0715
      5 C5          1.4176   -4.5064   -1.0120 C.2       1 <0>        -0.1968
      6 S1          2.4397   -3.0773   -0.7963 S.3       1 <0>         0.1618
      7 C6          1.1823   -1.9191   -0.3204 C.ar      1 <0>         0.1659
      8 C7          0.0006   -2.6884   -0.3452 C.ar      1 <0>        -0.2432
      9 C8         -1.1908   -1.9927    0.0035 C.ar      1 <0>         0.5062
     10 N1         -1.1217   -0.7118    0.3242 N.ar      1 <0>        -0.5722
     11 C9          0.0264   -0.0448    0.3225 C.ar      1 <0>         0.3642
     12 N2          1.1681   -0.6416    0.0062 N.ar      1 <0>        -0.5186
     13 S2          0.0347    1.6631    0.7556 S.3       1 <0>         0.0401
     14 C10         1.8015    2.0204    0.5917 C.3       1 <0>        -0.1545
     15 N3         -2.4072   -2.6507    0.0122 N.pl3     1 <0>        -0.5365
     16 N4         -3.5973   -1.9214    0.1334 N.pl3     1 <0>        -0.4759
     17 C11        -4.7827   -2.5626    0.1418 C.2       1 <0>         0.5774
     18 S3         -6.2369   -1.6714    0.2899 S.2       1 <0>        -0.6058
     19 N5         -4.8233   -3.9054    0.0337 N.pl3     1 <0>        -0.8301
     20 C12         1.8192   -5.8898   -1.4212 C.3       1 <0>         0.1391
     21 O1          0.7155   -6.7686   -1.1520 O.3       1 <0>        -0.3521
     22 C13        -1.5854   -7.3889   -1.5498 C.3       1 <0>        -0.1467
     23 H1         -1.3377   -5.4763   -3.4821 H         1 <0>         0.0705
     24 H2         -0.0578   -6.7168   -3.7048 H         1 <0>         0.0744
     25 H3          0.3816   -5.0585   -3.1722 H         1 <0>         0.0665
     26 H4         -1.8615   -4.6062   -1.2950 H         1 <0>         0.0821
     27 H5         -1.2784   -5.4182    0.1974 H         1 <0>         0.0954
     28 H6          1.9858    3.0775    0.8339 H         1 <0>         0.1138
     29 H7          2.1219    1.8197   -0.4413 H         1 <0>         0.0954
     30 H8          2.3705    1.3812    1.2829 H         1 <0>         0.0954
     31 H9         -2.4403   -3.7467   -0.0760 H         1 <0>         0.4494
     32 H10        -3.5642   -0.8255    0.2217 H         1 <0>         0.4916
     33 H11        -5.7908   -4.4287    0.0406 H         1 <0>         0.4670
     34 H12        -3.8889   -4.4780   -0.0614 H         1 <0>         0.3934
     35 H13         2.0601   -5.8993   -2.4945 H         1 <0>         0.0863
     36 H14         2.7027   -6.2009   -0.8444 H         1 <0>         0.1205
     37 H15        -1.7015   -7.6971   -0.5003 H         1 <0>         0.0697
     38 H16        -1.2618   -8.2510   -2.1515 H         1 <0>         0.0751
     39 H17        -2.5475   -7.0160   -1.9310 H         1 <0>         0.0749
@<TRIPOS>BOND
     1    1    2 1
     2    1   23 1
     3    1   24 1
     4    1   25 1
     5    2   21 1
     6    2    3 1
     7    2   22 1
     8    3    4 1
     9    3   26 1
    10    3   27 1
    11    4    8 1
    12    4    5 2
    13    5    6 1
    14    5   20 1
    15    6    7 1
    16    7   12 ar
    17    7    8 ar
    18    8    9 ar
    19    9   10 ar
    20    9   15 1
    21   10   11 ar
    22   11   12 ar
    23   11   13 1
    24   13   14 1
    25   14   28 1
    26   14   29 1
    27   14   30 1
    28   15   16 1
    29   15   31 1
    30   16   17 1
    31   16   32 1
    32   17   18 2
    33   17   19 1
    34   19   33 1
    35   19   34 1
    36   20   21 1
    37   20   35 1
    38   20   36 1
    39   22   37 1
    40   22   38 1
    41   22   39 1
@<TRIPOS>MOLECULE
ZINC38008818
   33    34     0     0     0
SMALL
USER_CHARGES

@<TRIPOS>ATOM
      1 C1         -0.0184    1.5028    0.0103 C.3       1 <0>        -0.0804
      2 C2          0.0021   -0.0041    0.0020 C.ar      1 <0>        -0.1387
      3 C3          0.0057   -0.6888   -1.1976 C.ar      1 <0>        -0.0498
      4 C4          0.0240   -2.0720   -1.2060 C.ar      1 <0>        -0.1699
      5 C5          0.0391   -2.7738   -0.0134 C.ar      1 <0>        -0.0389
      6 C6          0.0355   -2.0947    1.1889 C.ar      1 <0>        -0.2521
      7 C7          0.0230   -0.7055    1.2005 C.ar      1 <0>         0.2841
      8 N1          0.0256   -0.0156    2.4154 N.2       1 <0>        -1.0671
      9 S1          0.0505   -0.8536    3.8435 S.o2      1 <0>         2.5687
     10 O1         -1.1849   -1.5507    3.9270 O.2       1 <0>        -0.9995
     11 O2          1.3054   -1.5177    3.9029 O.2       1 <0>        -0.9949
     12 C8          0.0474    0.3344    5.1448 C.ar      1 <0>        -0.4661
     13 C9          1.2395    0.8332    5.6537 C.ar      1 <0>        -0.0836
     14 C10         1.2029    1.7633    6.6728 C.ar      1 <0>         0.1258
     15 N2          0.0527    2.1815    7.1665 N.ar      1 <0>        -0.4778
     16 C11        -1.1046    1.7298    6.7087 C.ar      1 <0>         0.4392
     17 C12        -1.1423    0.7953    5.6785 C.ar      1 <0>        -0.0934
     18 N3         -2.2926    2.1975    7.2583 N.pl3     1 <0>        -0.5471
     19 N4         -2.2627    3.1191    8.2661 N.3       1 <0>        -0.6122
     20 Br1         0.0277   -3.0058   -2.8504 Br        1 <0>        -0.0852
     21 H1          1.0042    1.8801    0.0026 H         1 <0>         0.0528
     22 H2         -0.5455    1.8639   -0.8728 H         1 <0>         0.0451
     23 H3         -0.5286    1.8543    0.9071 H         1 <0>         0.0710
     24 H4         -0.0060   -0.1438   -2.1299 H         1 <0>         0.1205
     25 H5          0.0533   -3.8536   -0.0230 H         1 <0>         0.1175
     26 H6          0.0470   -2.6429    2.1194 H         1 <0>         0.1056
     27 H7          2.1856    0.4965    5.2562 H         1 <0>         0.1933
     28 H8          2.1276    2.1535    7.0717 H         1 <0>         0.2132
     29 H9         -2.0876    0.4317    5.3037 H         1 <0>         0.1924
     30 H10        -3.1429    1.8694    6.9262 H         1 <0>         0.4432
     31 H11        -1.7456    3.9403    7.9899 H         1 <0>         0.3479
     32 H12        -3.1964    3.3621    8.5617 H         1 <0>         0.3929
     33 H13         0.0552    2.8358    7.8826 H         1 <0>         0.4435
@<TRIPOS>BOND
     1    1    2 1
     2    1   21 1
     3    1   22 1
     4    1   23 1
     5    2    7 ar
     6    2    3 ar
     7    3    4 ar
     8    3   24 1
     9    4    5 ar
    10    4   20 1
    11    5    6 ar
    12    5   25 1
    13    6    7 ar
    14    6   26 1
    15    7    8 1
    16    8    9 1
    17    9   10 2
    18    9   11 2
    19    9   12 1
    20   12   17 ar
    21   12   13 ar
    22   13   14 ar
    23   13   27 1
    24   14   15 ar
    25   14   28 1
    26   15   16 ar
    27   15   33 1
    28   16   17 ar
    29   16   18 1
    30   17   29 1
    31   18   19 1
    32   18   30 1
    33   19   31 1
    34   19   32 1
@<TRIPOS>MOLECULE
ZINC48866650
   34    36     0     0     0
SMALL
USER_CHARGES

@<TRIPOS>ATOM
      1 C1         -0.6592    1.5948    2.0009 C.ar      1 <0>        -0.1142
      2 C2          0.4909    2.1109    1.4329 C.ar      1 <0>        -0.0772
      3 C3          1.5628    1.2804    1.1653 C.ar      1 <0>        -0.1197
      4 C4          1.4854   -0.0668    1.4654 C.ar      1 <0>        -0.0601
      5 C5          0.3354   -0.5835    2.0340 C.ar      1 <0>        -0.0941
      6 C6         -0.7372    0.2482    2.3017 C.ar      1 <0>        -0.0748
      7 Br1         0.2288   -2.4263    2.4442 Br        1 <0>        -0.0402
      8 C7          2.8158    1.8435    0.5457 C.3       1 <0>         0.1546
      9 N1          3.7312    2.2777    1.6039 N.pl3     1 <0>        -0.3685
     10 C8          3.8698    3.5275    2.1113 C.2       1 <0>         0.2944
     11 N2          4.8007    3.4659    3.0398 N.2       1 <0>        -0.3184
     12 N3          5.2510    2.2680    3.1464 N.2       1 <0>        -0.0381
     13 N4          4.6503    1.4868    2.3155 N.2       1 <0>        -0.0774
     14 C9          3.1171    4.7334    1.6984 C.ar      1 <0>         0.0565
     15 C10         2.7801    5.7032    2.6414 C.ar      1 <0>        -0.1956
     16 C11         2.0746    6.8323    2.2516 C.ar      1 <0>         0.2659
     17 C12         1.7040    6.9970    0.9235 C.ar      1 <0>        -0.2558
     18 C13         2.0379    6.0325   -0.0179 C.ar      1 <0>         0.2675
     19 C14         2.7487    4.9042    0.3649 C.ar      1 <0>        -0.2407
     20 N5          1.6630    6.2013   -1.3530 N.pl3     1 <0>        -0.8729
     21 N6          1.7362    7.8043    3.1961 N.pl3     1 <0>        -0.8706
     22 H1         -1.4950    2.2449    2.2136 H         1 <0>         0.1376
     23 H2          0.5515    3.1633    1.1979 H         1 <0>         0.1345
     24 H3          2.3228   -0.7158    1.2556 H         1 <0>         0.1383
     25 H4         -1.6355   -0.1548    2.7457 H         1 <0>         0.1373
     26 H5          3.2982    1.0762   -0.0598 H         1 <0>         0.1184
     27 H6          2.5587    2.6950   -0.0843 H         1 <0>         0.1265
     28 H7          3.0677    5.5755    3.6746 H         1 <0>         0.1317
     29 H8          1.1548    7.8768    0.6223 H         1 <0>         0.1254
     30 H9          3.0123    4.1567   -0.3687 H         1 <0>         0.1234
     31 H10         1.1698    6.9921   -1.6220 H         1 <0>         0.4018
     32 H11         1.8960    5.5278   -2.0111 H         1 <0>         0.4003
     33 H12         1.9945    7.6897    4.1240 H         1 <0>         0.4029
     34 H13         1.2429    8.5940    2.9240 H         1 <0>         0.4013
@<TRIPOS>BOND
     1    1    6 ar
     2    1    2 ar
     3    1   22 1
     4    2    3 ar
     5    2   23 1
     6    3    4 ar
     7    3    8 1
     8    4    5 ar
     9    4   24 1
    10    5    6 ar
    11    5    7 1
    12    6   25 1
    13    8    9 1
    14    8   26 1
    15    8   27 1
    16    9   13 1
    17    9   10 1
    18   10   11 2
    19   10   14 1
    20   11   12 1
    21   12   13 2
    22   14   19 ar
    23   14   15 ar
    24   15   16 ar
    25   15   28 1
    26   16   17 ar
    27   16   21 1
    28   17   18 ar
    29   17   29 1
    30   18   19 ar
    31   18   20 1
    32   19   30 1
    33   20   31 1
    34   20   32 1
    35   21   33 1
    36   21   34 1
@<TRIPOS>MOLECULE
ZINC53113490
   42    43     0     0     0
SMALL
USER_CHARGES

@<TRIPOS>ATOM
      1 C1         -0.2040    1.1804    0.1493 C.3       1 <0>        -0.1620
      2 C2          0.1342   -0.2677   -0.2106 C.3       1 <0>        -0.0866
      3 H1         -0.7812   -0.8590   -0.2363 H         1 <0>         0.0730
      4 C3          0.8062   -0.3082   -1.5845 C.3       1 <0>        -0.1239
      5 C4          2.0910    0.5217   -1.5485 C.3       1 <0>        -0.1103
      6 C5          3.0420   -0.0561   -0.4984 C.3       1 <0>        -0.1368
      7 C6          2.3700   -0.0156    0.8756 C.3       1 <0>         0.1921
      8 C7          1.0852   -0.8455    0.8395 C.3       1 <0>        -0.1095
      9 C8          3.3210   -0.5933    1.9257 C.3       1 <0>         0.0527
     10 O1          4.5777    0.0833    1.8539 O.3       1 <0>        -0.5539
     11 N1          2.0463    1.3710    1.2201 N.pl3     1 <0>        -1.1058
     12 S1          3.0723    2.5945    0.7812 S.o2      1 <0>         2.6905
     13 O2          3.4514    2.3433   -0.5650 O.2       1 <0>        -0.9437
     14 O3          2.4530    3.8082    1.1844 O.2       1 <0>        -0.9687
     15 C9          4.5310    2.4257    1.7550 C.ar      1 <0>        -0.6917
     16 C10         5.7419    2.1600    1.1460 C.ar      1 <0>         0.0807
     17 C11         6.8875    2.0268    1.9099 C.ar      1 <0>        -0.1675
     18 C12         6.8242    2.1598    3.2859 C.ar      1 <0>        -0.0002
     19 C13         5.6165    2.4254    3.9004 C.ar      1 <0>        -0.2104
     20 C14         4.4653    2.5653    3.1353 C.ar      1 <0>         0.3229
     21 N2          3.2430    2.8403    3.7536 N.pl3     1 <0>        -0.8660
     22 Br1         8.5431    1.6618    1.0724 Br        1 <0>        -0.0537
     23 H2          0.6568    1.8165   -0.0569 H         1 <0>         0.0656
     24 H3         -1.0534    1.5140   -0.4468 H         1 <0>         0.0543
     25 H4         -0.4563    1.2423    1.2079 H         1 <0>         0.0534
     26 H5          1.0471   -1.3399   -1.8409 H         1 <0>         0.0613
     27 H6          0.1287    0.1033   -2.3326 H         1 <0>         0.0620
     28 H7          2.5698    0.4928   -2.5273 H         1 <0>         0.0649
     29 H8          1.8501    1.5533   -1.2921 H         1 <0>         0.0749
     30 H9          3.2830   -1.0877   -0.7547 H         1 <0>         0.0716
     31 H10         3.9574    0.5352   -0.4727 H         1 <0>         0.1026
     32 H11         0.6064   -0.8166    1.8183 H         1 <0>         0.0697
     33 H12         1.3261   -1.8771    0.5832 H         1 <0>         0.0804
     34 H13         2.8917   -0.4579    2.9184 H         1 <0>         0.0502
     35 H14         3.4694   -1.6563    1.7359 H         1 <0>         0.0579
     36 H15         5.2313   -0.2322    2.4929 H         1 <0>         0.3756
     37 H16         1.2309    1.5725    1.7054 H         1 <0>         0.4170
     38 H17         5.7944    2.0557    0.0723 H         1 <0>         0.1444
     39 H18         7.7202    2.0553    3.8798 H         1 <0>         0.1346
     40 H19         5.5676    2.5287    4.9743 H         1 <0>         0.1328
     41 H20         2.4269    2.8554    3.2295 H         1 <0>         0.3960
     42 H21         3.2104    3.0160    4.7070 H         1 <0>         0.4096
@<TRIPOS>BOND
     1    1    2 1
     2    1   23 1
     3    1   24 1
     4    1   25 1
     5    2    3 1
     6    2    8 1
     7    2    4 1
     8    4    5 1
     9    4   26 1
    10    4   27 1
    11    5    6 1
    12    5   28 1
    13    5   29 1
    14    6    7 1
    15    6   30 1
    16    6   31 1
    17    7    8 1
    18    7    9 1
    19    7   11 1
    20    8   32 1
    21    8   33 1
    22    9   10 1
    23    9   34 1
    24    9   35 1
    25   10   36 1
    26   11   12 1
    27   11   37 1
    28   12   13 2
    29   12   14 2
    30   12   15 1
    31   15   20 ar
    32   15   16 ar
    33   16   17 ar
    34   16   38 1
    35   17   18 ar
    36   17   22 1
    37   18   19 ar
    38   18   39 1
    39   19   20 ar
    40   19   40 1
    41   20   21 1
    42   21   41 1
    43   21   42 1
@<TRIPOS>MOLECULE
ZINC12748000
   34    34     0     0     0
SMALL
USER_CHARGES
(2S)-N-(4-bromophenyl)-3-methyl-2-ureido-butanamide
@<TRIPOS>ATOM
      1 C1          1.7913   -6.3810    0.8560 C.3       1 <0>        -0.1371
      2 C2          1.7761   -4.8561    0.9801 C.3       1 <0>        -0.1040
      3 C3          2.5585   -4.4380    2.2267 C.3       1 <0>        -0.1509
      4 C4          2.4238   -4.2370   -0.2600 C.3       1 <0>         0.1533
      5 H1          1.8664   -4.5348   -1.1481 H         1 <0>         0.1217
      6 C5          2.4088   -2.7350   -0.1378 C.2       1 <0>         0.5170
      7 O1          3.4515   -2.1156   -0.1442 O.2       1 <0>        -0.5101
      8 N1          1.2366   -2.0801   -0.0214 N.am      1 <0>        -0.6686
      9 C6          1.2141   -0.6807   -0.0188 C.ar      1 <0>         0.1619
     10 C7          2.1375    0.0312   -0.7731 C.ar      1 <0>        -0.1158
     11 C8          2.1134    1.4121   -0.7684 C.ar      1 <0>        -0.0692
     12 C9          1.1703    2.0862   -0.0131 C.ar      1 <0>        -0.1058
     13 C10         0.2490    1.3794    0.7394 C.ar      1 <0>        -0.0692
     14 C11         0.2687   -0.0015    0.7383 C.ar      1 <0>        -0.1382
     15 Br1         1.1403    3.9769   -0.0092 Br        1 <0>        -0.0476
     16 N2          3.8078   -4.7039   -0.3727 N.am      1 <0>        -0.7274
     17 C12         4.0758   -5.8780   -0.9778 C.2       1 <0>         0.7109
     18 O2          3.1688   -6.5497   -1.4301 O.2       1 <0>        -0.5873
     19 N3          5.3490   -6.3076   -1.0814 N.am      1 <0>        -0.8648
     20 H2          2.8211   -6.7284    0.7722 H         1 <0>         0.0580
     21 H3          1.3299   -6.8221    1.7395 H         1 <0>         0.0525
     22 H4          1.2340   -6.6788   -0.0321 H         1 <0>         0.0676
     23 H5          0.7463   -4.5087    1.0640 H         1 <0>         0.0827
     24 H6          2.5476   -3.3517    2.3151 H         1 <0>         0.0524
     25 H7          2.0970   -4.8791    3.1102 H         1 <0>         0.0634
     26 H8          3.5882   -4.7854    2.1429 H         1 <0>         0.0594
     27 H9          0.4086   -2.5786    0.0607 H         1 <0>         0.4162
     28 H10         2.8737   -0.4945   -1.3632 H         1 <0>         0.1428
     29 H11         2.8341    1.9663   -1.3514 H         1 <0>         0.1373
     30 H12        -0.4861    1.9081    1.3281 H         1 <0>         0.1386
     31 H13        -0.4509   -0.5527    1.3256 H         1 <0>         0.1370
     32 H14         4.5314   -4.1680   -0.0119 H         1 <0>         0.4067
     33 H15         6.0726   -5.7717   -0.7206 H         1 <0>         0.3986
     34 H16         5.5418   -7.1527   -1.5169 H         1 <0>         0.4177
@<TRIPOS>BOND
     1    1    2 1
     2    1   20 1
     3    1   21 1
     4    1   22 1
     5    2    3 1
     6    2    4 1
     7    2   23 1
     8    3   24 1
     9    3   25 1
    10    3   26 1
    11    4    5 1
    12    4    6 1
    13    4   16 1
    14    6    7 2
    15    6    8 am
    16    8    9 1
    17    8   27 1
    18    9   14 ar
    19    9   10 ar
    20   10   11 ar
    21   10   28 1
    22   11   12 ar
    23   11   29 1
    24   12   13 ar
    25   12   15 1
    26   13   14 ar
    27   13   30 1
    28   14   31 1
    29   16   17 am
    30   16   32 1
    31   17   18 2
    32   17   19 am
    33   19   33 1
    34   19   34 1
@<TRIPOS>MOLECULE
ZINC37212159
   37    38     0     0     0
SMALL
USER_CHARGES

@<TRIPOS>ATOM
      1 C1          0.1692    1.4932   -0.1212 C.3       1 <0>        -0.1666
      2 C2          0.0119   -0.0248   -0.0122 C.3       1 <0>         0.1892
      3 H1         -1.0459   -0.2757    0.0668 H         1 <0>         0.0917
      4 C3          0.7382   -0.5185    1.2124 C.ar      1 <0>        -0.1115
      5 C4          2.1096   -0.6918    1.1782 C.ar      1 <0>        -0.0910
      6 C5          2.7782   -1.1441    2.2989 C.ar      1 <0>        -0.1158
      7 C6          2.0716   -1.4249    3.4609 C.ar      1 <0>         0.1682
      8 C7          0.6944   -1.2498    3.4921 C.ar      1 <0>        -0.1431
      9 C8          0.0324   -0.7918    2.3698 C.ar      1 <0>        -0.0854
     10 N1          2.7460   -1.8839    4.5981 N.am      1 <0>        -0.6867
     11 C9          3.9983   -1.4578    4.8567 C.2       1 <0>         0.7050
     12 O1          4.5061   -0.6027    4.1572 O.2       1 <0>        -0.5737
     13 N2          4.6876   -1.9797    5.8906 N.am      1 <0>        -0.8604
     14 N3          0.5769   -0.6611   -1.2047 N.pl3     1 <0>        -0.7306
     15 C10        -0.1969   -0.7973   -2.3536 C.ar      1 <0>         0.2508
     16 C11        -1.5054   -0.3233   -2.3697 C.ar      1 <0>        -0.2044
     17 C12        -2.2734   -0.4564   -3.5042 C.ar      1 <0>        -0.0172
     18 C13        -1.7377   -1.0685   -4.6413 C.ar      1 <0>        -0.0986
     19 C14        -0.4229   -1.5435   -4.6217 C.ar      1 <0>        -0.0173
     20 C15         0.3414   -1.4021   -3.4857 C.ar      1 <0>        -0.2000
     21 C16        -2.5340   -1.2091   -5.8231 C.1       1 <0>         0.2599
     22 N4         -3.1657   -1.3206   -6.7607 N.1       1 <0>        -0.4341
     23 H2          1.2270    1.7441   -0.2002 H         1 <0>         0.0622
     24 H3         -0.3561    1.8503   -1.0069 H         1 <0>         0.0658
     25 H4         -0.2511    1.9667    0.7661 H         1 <0>         0.0686
     26 H5          2.6585   -0.4736    0.2741 H         1 <0>         0.1237
     27 H6          3.8493   -1.2797    2.2715 H         1 <0>         0.1376
     28 H7          0.1420   -1.4677    4.3942 H         1 <0>         0.1283
     29 H8         -1.0381   -0.6512    2.3947 H         1 <0>         0.1297
     30 H9          2.3122   -2.5086    5.2001 H         1 <0>         0.4086
     31 H10         4.2824   -2.6619    6.4486 H         1 <0>         0.3998
     32 H11         5.5888   -1.6731    6.0767 H         1 <0>         0.4203
     33 H12         1.4903   -0.9875   -1.1937 H         1 <0>         0.4027
     34 H13        -1.9187    0.1491   -1.4908 H         1 <0>         0.1322
     35 H14        -3.2889   -0.0887   -3.5159 H         1 <0>         0.1307
     36 H15        -0.0060   -2.0169   -5.4983 H         1 <0>         0.1310
     37 H16         1.3587   -1.7645   -3.4714 H         1 <0>         0.1302
@<TRIPOS>BOND
     1    1    2 1
     2    1   23 1
     3    1   24 1
     4    1   25 1
     5    2    3 1
     6    2    4 1
     7    2   14 1
     8    4    9 ar
     9    4    5 ar
    10    5    6 ar
    11    5   26 1
    12    6    7 ar
    13    6   27 1
    14    7    8 ar
    15    7   10 1
    16    8    9 ar
    17    8   28 1
    18    9   29 1
    19   10   11 am
    20   10   30 1
    21   11   12 2
    22   11   13 am
    23   13   31 1
    24   13   32 1
    25   14   15 1
    26   14   33 1
    27   15   20 ar
    28   15   16 ar
    29   16   17 ar
    30   16   34 1
    31   17   18 ar
    32   17   35 1
    33   18   19 ar
    34   18   21 1
    35   19   20 ar
    36   19   36 1
    37   20   37 1
    38   21   22 3
@<TRIPOS>MOLECULE
ZINC42903965
   36    37     0     0     0
SMALL
USER_CHARGES

@<TRIPOS>ATOM
      1 C1         -0.2832    2.7062   -4.4214 C.3       1 <0>        -0.1465
      2 S1          0.0470    1.1217   -5.2406 S.3       1 <0>        -0.1084
      3 C2          0.6138    0.0786   -3.9386 C.ar      1 <0>        -0.0632
      4 C3          0.7030    0.5706   -2.6412 C.ar      1 <0>        -0.1494
      5 C4          1.1468   -0.2469   -1.6203 C.ar      1 <0>        -0.0774
      6 C5          1.5040   -1.5555   -1.8845 C.ar      1 <0>        -0.1506
      7 C6          1.4172   -2.0535   -3.1785 C.ar      1 <0>         0.1799
      8 C7          0.9665   -1.2373   -4.2057 C.ar      1 <0>        -0.1013
      9 N1          1.7796   -3.3787   -3.4446 N.am      1 <0>        -0.6790
     10 C8          2.3318   -3.7010   -4.6311 C.2       1 <0>         0.7028
     11 O1          2.6017   -2.8281   -5.4331 O.2       1 <0>        -0.5439
     12 N2          2.5847   -4.9910   -4.9284 N.am      1 <0>        -0.6803
     13 C9          3.2534   -5.3164   -6.1077 C.ar      1 <0>         0.1928
     14 C10         4.2313   -4.4631   -6.6093 C.ar      1 <0>        -0.1288
     15 C11         4.8931   -4.7811   -7.7737 C.ar      1 <0>        -0.0340
     16 C12         4.5821   -5.9629   -8.4519 C.ar      1 <0>        -0.1585
     17 C13         3.5997   -6.8180   -7.9451 C.ar      1 <0>        -0.0626
     18 C14         2.9454   -6.4965   -6.7774 C.ar      1 <0>        -0.1550
     19 C15         5.2893   -6.3068   -9.7008 C.2       1 <0>         0.5646
     20 O2          6.1435   -5.5617  -10.1407 O.2       1 <0>        -0.5392
     21 N3          4.9882   -7.4468  -10.3536 N.am      1 <0>        -0.8521
     22 H1         -1.0395    2.5653   -3.6493 H         1 <0>         0.0846
     23 H2          0.6349    3.0785   -3.9670 H         1 <0>         0.0850
     24 H3         -0.6434    3.4267   -5.1557 H         1 <0>         0.1106
     25 H4          0.4254    1.5931   -2.4316 H         1 <0>         0.1256
     26 H5          1.2153    0.1375   -0.6134 H         1 <0>         0.1320
     27 H6          1.8513   -2.1919   -1.0839 H         1 <0>         0.1295
     28 H7          0.8943   -1.6234   -5.2118 H         1 <0>         0.1426
     29 H8          1.6334   -4.0653   -2.7752 H         1 <0>         0.4112
     30 H9          2.3015   -5.6930   -4.3219 H         1 <0>         0.4116
     31 H10         4.4711   -3.5500   -6.0847 H         1 <0>         0.1442
     32 H11         5.6515   -4.1180   -8.1629 H         1 <0>         0.1415
     33 H12         3.3570   -7.7319   -8.4668 H         1 <0>         0.1317
     34 H13         2.1892   -7.1590   -6.3828 H         1 <0>         0.1340
     35 H14         4.3068   -8.0412  -10.0027 H         1 <0>         0.4003
     36 H15         5.4530   -7.6729  -11.1745 H         1 <0>         0.4060
@<TRIPOS>BOND
     1    1    2 1
     2    1   22 1
     3    1   23 1
     4    1   24 1
     5    2    3 1
     6    3    8 ar
     7    3    4 ar
     8    4    5 ar
     9    4   25 1
    10    5    6 ar
    11    5   26 1
    12    6    7 ar
    13    6   27 1
    14    7    8 ar
    15    7    9 1
    16    8   28 1
    17    9   10 am
    18    9   29 1
    19   10   11 2
    20   10   12 am
    21   12   13 1
    22   12   30 1
    23   13   18 ar
    24   13   14 ar
    25   14   15 ar
    26   14   31 1
    27   15   16 ar
    28   15   32 1
    29   16   17 ar
    30   16   19 1
    31   17   18 ar
    32   17   33 1
    33   18   34 1
    34   19   20 2
    35   19   21 am
    36   21   35 1
    37   21   36 1
@<TRIPOS>MOLECULE
ZINC49623811
   33    34     0     0     0
SMALL
USER_CHARGES

@<TRIPOS>ATOM
      1 C1         -0.0167    1.3792    0.0096 C.ar      1 <0>        -0.0932
      2 C2          1.1669    2.0882    0.0021 C.ar      1 <0>        -0.0927
      3 C3          2.3846    1.4070   -0.0132 C.ar      1 <0>         0.0277
      4 C4          2.3966    0.0117   -0.0208 C.ar      1 <0>        -0.0944
      5 C5          1.2060   -0.6854   -0.0132 C.ar      1 <0>        -0.0936
      6 C6          0.0021   -0.0041    0.0020 C.ar      1 <0>        -0.0803
      7 C7         -1.2946   -0.7720    0.0103 C.3       1 <0>        -0.0547
      8 S1         -1.8312   -1.0710   -1.6965 S.3       1 <0>         0.0058
      9 C8         -3.3387   -1.9657   -1.5189 C.2       1 <0>         0.4043
     10 N1         -4.0155   -2.3607   -2.6332 N.am      1 <0>        -0.6236
     11 H1         -3.6656   -2.1487   -3.5127 H         1 <0>         0.4198
     12 C9         -5.1716   -3.0467   -2.5159 C.2       1 <0>         0.5432
     13 O1         -5.7844   -3.4049   -3.5094 O.2       1 <0>        -0.5481
     14 C10        -5.6557   -3.3408   -1.2376 C.2       1 <0>        -0.4010
     15 C11        -4.9285   -2.9159   -0.1343 C.2       1 <0>         0.4609
     16 N2         -3.7856   -2.2437   -0.3114 N.2       1 <0>        -0.5783
     17 N3         -5.3801   -3.1908    1.1409 N.pl3     1 <0>        -0.8285
     18 C12         3.6167    2.1367   -0.0215 C.1       1 <0>        -0.1228
     19 C13         4.6268    2.7350   -0.0283 C.1       1 <0>        -0.1521
     20 C14         5.8933    3.4851   -0.0369 C.3       1 <0>         0.1898
     21 O2          6.9896    2.5686   -0.0522 O.3       1 <0>        -0.5672
     22 H2         -0.9598    1.9052    0.0260 H         1 <0>         0.1349
     23 H3          1.1510    3.1681    0.0077 H         1 <0>         0.1329
     24 H4          3.3358   -0.5213   -0.0330 H         1 <0>         0.1323
     25 H5          1.2139   -1.7654   -0.0191 H         1 <0>         0.1347
     26 H6         -1.1488   -1.7257    0.5176 H         1 <0>         0.1133
     27 H7         -2.0557   -0.1942    0.5345 H         1 <0>         0.1133
     28 H8         -6.5781   -3.8880   -1.1110 H         1 <0>         0.1493
     29 H9         -6.2071   -3.6818    1.2672 H         1 <0>         0.4167
     30 H10        -4.8705   -2.8930    1.9106 H         1 <0>         0.4073
     31 H11         5.9355    4.1169   -0.9241 H         1 <0>         0.0768
     32 H12         5.9528    4.1079    0.8557 H         1 <0>         0.0766
     33 H13         7.8579    2.9942   -0.0585 H         1 <0>         0.3910
@<TRIPOS>BOND
     1    1    6 ar
     2    1    2 ar
     3    1   22 1
     4    2    3 ar
     5    2   23 1
     6    3    4 ar
     7    3   18 1
     8    4    5 ar
     9    4   24 1
    10    5    6 ar
    11    5   25 1
    12    6    7 1
    13    7    8 1
    14    7   26 1
    15    7   27 1
    16    8    9 1
    17    9   16 2
    18    9   10 1
    19   10   11 1
    20   10   12 am
    21   12   13 2
    22   12   14 1
    23   14   15 2
    24   14   28 1
    25   15   16 1
    26   15   17 1
    27   17   29 1
    28   17   30 1
    29   18   19 3
    30   19   20 1
    31   20   21 1
    32   20   31 1
    33   20   32 1
    34   21   33 1
@<TRIPOS>MOLECULE
ZINC53112708
   45    46     0     0     0
SMALL
USER_CHARGES

@<TRIPOS>ATOM
      1 C1          1.3835    1.9115   -0.3228 C.3       1 <0>        -0.1209
      2 C2          1.0709    0.4449   -0.1739 C.ar      1 <0>        -0.0559
      3 C3          0.7966   -0.3200   -1.2931 C.ar      1 <0>        -0.0706
      4 C4          0.5089   -1.6659   -1.1610 C.ar      1 <0>        -0.6255
      5 C5          0.4948   -2.2512    0.0901 C.ar      1 <0>        -0.1074
      6 C6          0.7702   -1.4861    1.2161 C.ar      1 <0>         0.2037
      7 C7          1.0641   -0.1351    1.0792 C.ar      1 <0>        -0.1093
      8 C8          1.3690    0.6978    2.2976 C.3       1 <0>        -0.1172
      9 N1          0.7568   -2.0747    2.4827 N.pl3     1 <0>        -0.8758
     10 S1          0.1591   -2.6355   -2.5900 S.o2      1 <0>         2.6946
     11 O1         -0.4305   -3.8428   -2.1274 O.2       1 <0>        -0.9508
     12 O2         -0.4920   -1.7753   -3.5150 O.2       1 <0>        -0.9618
     13 N2          1.6119   -3.0482   -3.2693 N.pl3     1 <0>        -1.0939
     14 C9          2.5489   -3.9004   -2.5332 C.3       1 <0>         0.1897
     15 C10         3.6945   -4.3164   -3.4581 C.3       1 <0>        -0.1114
     16 C11         4.4250   -3.0685   -3.9582 C.3       1 <0>        -0.1220
     17 C12         4.9885   -2.2947   -2.7647 C.3       1 <0>        -0.1211
     18 C13         3.8429   -1.8787   -1.8397 C.3       1 <0>        -0.1107
     19 C14         3.1124   -3.1266   -1.3396 C.3       1 <0>        -0.1557
     20 C15         1.8184   -5.1483   -2.0331 C.3       1 <0>         0.0518
     21 O3          1.1762   -5.7970   -3.1325 O.3       1 <0>        -0.5569
     22 H1          2.4573    2.0424   -0.4563 H         1 <0>         0.0751
     23 H2          0.8583    2.3086   -1.1914 H         1 <0>         0.0720
     24 H3          1.0610    2.4444    0.5717 H         1 <0>         0.0713
     25 H4          0.8069    0.1351   -2.2725 H         1 <0>         0.1327
     26 H5          0.2696   -3.3024    0.1927 H         1 <0>         0.1376
     27 H6          0.4441    1.1214    2.6890 H         1 <0>         0.0736
     28 H7          1.8326    0.0711    3.0594 H         1 <0>         0.0639
     29 H8          2.0510    1.5034    2.0255 H         1 <0>         0.0755
     30 H9          0.5551   -3.0188    2.5767 H         1 <0>         0.4008
     31 H10         0.9493   -1.5393    3.2683 H         1 <0>         0.4002
     32 H11         1.8424   -2.7256   -4.1546 H         1 <0>         0.4184
     33 H12         4.3917   -4.9505   -2.9104 H         1 <0>         0.0751
     34 H13         3.2931   -4.8677   -4.3084 H         1 <0>         0.0803
     35 H14         5.2411   -3.3649   -4.6172 H         1 <0>         0.0664
     36 H15         3.7278   -2.4344   -4.5059 H         1 <0>         0.0635
     37 H16         5.6857   -2.9288   -2.2170 H         1 <0>         0.0621
     38 H17         5.5089   -1.4057   -3.1210 H         1 <0>         0.0626
     39 H18         4.2443   -1.3275   -0.9894 H         1 <0>         0.0628
     40 H19         3.1457   -1.2447   -2.3874 H         1 <0>         0.0652
     41 H20         2.2963   -2.8303   -0.6807 H         1 <0>         0.0839
     42 H21         3.8096   -3.7607   -0.7919 H         1 <0>         0.0785
     43 H22         2.5356   -5.8308   -1.5770 H         1 <0>         0.0529
     44 H23         1.0708   -4.8600   -1.2942 H         1 <0>         0.0711
     45 H24         0.6318   -6.5548   -2.8786 H         1 <0>         0.3815
@<TRIPOS>BOND
     1    1    2 1
     2    1   22 1
     3    1   23 1
     4    1   24 1
     5    2    7 ar
     6    2    3 ar
     7    3    4 ar
     8    3   25 1
     9    4    5 ar
    10    4   10 1
    11    5    6 ar
    12    5   26 1
    13    6    7 ar
    14    6    9 1
    15    7    8 1
    16    8   27 1
    17    8   28 1
    18    8   29 1
    19    9   30 1
    20    9   31 1
    21   10   11 2
    22   10   12 2
    23   10   13 1
    24   13   14 1
    25   13   32 1
    26   14   19 1
    27   14   15 1
    28   14   20 1
    29   15   16 1
    30   15   33 1
    31   15   34 1
    32   16   17 1
    33   16   35 1
    34   16   36 1
    35   17   18 1
    36   17   37 1
    37   17   38 1
    38   18   19 1
    39   18   39 1
    40   18   40 1
    41   19   41 1
    42   19   42 1
    43   20   21 1
    44   20   43 1
    45   20   44 1
    46   21   45 1
@<TRIPOS>MOLECULE
ZINC09440795
   51    54     0     0     0
SMALL
USER_CHARGES
3-methyl-N-[3-(4-sulfamoylphenyl)aminoquinoxalin-2-yl]-benzenesulfonamide
@<TRIPOS>ATOM
      1 C1         -3.1722    1.3144    0.0544 C.3       1 <0>        -0.1168
      2 C2         -1.7825    1.8955    0.0090 C.ar      1 <0>        -0.1102
      3 C3         -0.6845    1.0577   -0.0537 C.ar      1 <0>        -0.0595
      4 C4          0.5898    1.5908   -0.1011 C.ar      1 <0>        -0.1392
      5 C5          0.7667    2.9619   -0.0804 C.ar      1 <0>        -0.0282
      6 C6         -0.3307    3.7993   -0.0124 C.ar      1 <0>        -0.6690
      7 C7         -1.6054    3.2660    0.0350 C.ar      1 <0>         0.0018
      8 S1         -0.1052    5.5467    0.0133 S.o2      1 <0>         2.6885
      9 O1         -1.2616    6.0964    0.6296 O.2       1 <0>        -0.9197
     10 O2          1.2059    5.7797    0.5091 O.2       1 <0>        -0.9441
     11 N1         -0.1156    6.0649   -1.5595 N.pl3     1 <0>        -1.0293
     12 C8         -1.2671    5.9425   -2.3223 C.ar      1 <0>         0.3455
     13 C9         -1.2712    6.3869   -3.6665 C.ar      1 <0>         0.3549
     14 N2         -2.3581    6.2764   -4.4017 N.ar      1 <0>        -0.4536
     15 C10        -3.4681    5.7395   -3.8738 C.ar      1 <0>         0.1008
     16 C11        -4.6392    5.6105   -4.6375 C.ar      1 <0>        -0.0858
     17 C12        -5.7537    5.0615   -4.0789 C.ar      1 <0>        -0.0924
     18 C13        -5.7497    4.6246   -2.7569 C.ar      1 <0>        -0.0997
     19 C14        -4.6312    4.7349   -1.9871 C.ar      1 <0>        -0.0793
     20 C15        -3.4640    5.2953   -2.5300 C.ar      1 <0>         0.0894
     21 N3         -2.3485    5.4088   -1.7936 N.ar      1 <0>        -0.4462
     22 N4         -0.1228    6.9419   -4.2127 N.pl3     1 <0>        -0.6526
     23 C16        -0.0847    7.2746   -5.5693 C.ar      1 <0>         0.2240
     24 C17        -0.7839    6.5089   -6.4938 C.ar      1 <0>        -0.1408
     25 C18        -0.7486    6.8439   -7.8331 C.ar      1 <0>         0.0052
     26 C19        -0.0088    7.9331   -8.2558 C.ar      1 <0>        -0.6965
     27 C20         0.6931    8.6941   -7.3389 C.ar      1 <0>         0.0075
     28 C21         0.6572    8.3684   -5.9973 C.ar      1 <0>        -0.1727
     29 S2          0.0393    8.3525   -9.9665 S.o2      1 <0>         2.7027
     30 O3         -1.1383    7.8125  -10.5503 O.2       1 <0>        -0.9636
     31 O4          0.3593    9.7352  -10.0367 O.2       1 <0>        -0.9642
     32 N5          1.3160    7.5367  -10.6349 N.pl3     1 <0>        -1.2507
     33 H1         -3.4649    1.1530    1.0919 H         1 <0>         0.0755
     34 H2         -3.8707    2.0058   -0.4168 H         1 <0>         0.0709
     35 H3         -3.1861    0.3639   -0.4791 H         1 <0>         0.0696
     36 H4         -0.8227   -0.0133   -0.0701 H         1 <0>         0.1313
     37 H5          1.4473    0.9364   -0.1545 H         1 <0>         0.1340
     38 H6          1.7624    3.3785   -0.1178 H         1 <0>         0.1388
     39 H7         -2.4629    3.9205    0.0877 H         1 <0>         0.1500
     40 H8          0.6839    6.4540   -1.9472 H         1 <0>         0.4307
     41 H9         -4.6562    5.9449   -5.6643 H         1 <0>         0.1414
     42 H10        -6.6525    4.9635   -4.6695 H         1 <0>         0.1379
     43 H11        -6.6456    4.1926   -2.3359 H         1 <0>         0.1380
     44 H12        -4.6421    4.3919   -0.9631 H         1 <0>         0.1404
     45 H13         0.6536    7.0990   -3.6528 H         1 <0>         0.4202
     46 H14        -1.3583    5.6555   -6.1649 H         1 <0>         0.1454
     47 H15        -1.2962    6.2521   -8.5517 H         1 <0>         0.1463
     48 H16         1.2696    9.5443   -7.6723 H         1 <0>         0.1478
     49 H17         1.2050    8.9635   -5.2817 H         1 <0>         0.1381
     50 H18         1.8663    6.9603  -10.0819 H         1 <0>         0.4164
     51 H19         1.5134    7.6352  -11.5795 H         1 <0>         0.4211
@<TRIPOS>BOND
     1    1    2 1
     2    1   33 1
     3    1   34 1
     4    1   35 1
     5    2    7 ar
     6    2    3 ar
     7    3    4 ar
     8    3   36 1
     9    4    5 ar
    10    4   37 1
    11    5    6 ar
    12    5   38 1
    13    6    7 ar
    14    6    8 1
    15    7   39 1
    16    8    9 2
    17    8   10 2
    18    8   11 1
    19   11   12 1
    20   11   40 1
    21   12   21 ar
    22   12   13 ar
    23   13   14 ar
    24   13   22 1
    25   14   15 ar
    26   15   20 ar
    27   15   16 ar
    28   16   17 ar
    29   16   41 1
    30   17   18 ar
    31   17   42 1
    32   18   19 ar
    33   18   43 1
    34   19   20 ar
    35   19   44 1
    36   20   21 ar
    37   22   23 1
    38   22   45 1
    39   23   28 ar
    40   23   24 ar
    41   24   25 ar
    42   24   46 1
    43   25   26 ar
    44   25   47 1
    45   26   27 ar
    46   26   29 1
    47   27   28 ar
    48   27   48 1
    49   28   49 1
    50   29   30 2
    51   29   31 2
    52   29   32 1
    53   32   50 1
    54   32   51 1
@<TRIPOS>MOLECULE
ZINC15387968
   43    44     0     0     0
SMALL
USER_CHARGES
4-[2-[[2-[(3,4-difluorophenyl)amino]-2-oxo-ethyl]amino]-2-oxo-ethyl]sulfanyl-3-nitro-benzamide
@<TRIPOS>ATOM
      1 C1          1.2362   -2.0584   -0.0153 C.ar      1 <0>        -0.0123
      2 C2          1.2176   -0.6823   -0.0128 C.ar      1 <0>        -0.1481
      3 C3          0.0012   -0.0035   -0.0079 C.ar      1 <0>        -0.0430
      4 C4         -1.1965   -0.7149   -0.0002 C.ar      1 <0>        -0.0426
      5 C5         -1.1842   -2.0804   -0.0081 C.ar      1 <0>         0.0288
      6 C6          0.0323   -2.7699   -0.0130 C.ar      1 <0>        -0.1516
      7 C7          0.0457   -4.2446   -0.0163 C.2       1 <0>         0.5676
      8 O1         -1.0018   -4.8621   -0.0143 O.2       1 <0>        -0.5256
      9 N1          1.2190   -4.9079   -0.0215 N.am      1 <0>        -0.8467
     10 N2         -2.4862    0.0115    0.0111 N.pl3     1 <0>         0.0280
     11 O2         -3.5344   -0.6088    0.0178 O.2       1 <0>        -0.1491
     12 O3         -2.4992    1.2294    0.0138 O.3       1 <0>        -0.1390
     13 S1         -0.0225    1.7584   -0.0040 S.3       1 <0>         0.1291
     14 C8          1.7315    2.2209   -0.0079 C.3       1 <0>        -0.2136
     15 C9          1.8550    3.7228   -0.0050 C.2       1 <0>         0.5421
     16 O4          0.8578    4.4132   -0.0007 O.2       1 <0>        -0.5116
     17 N3          3.0734    4.2988   -0.0072 N.am      1 <0>        -0.7153
     18 C10         3.1935    5.7589   -0.0043 C.3       1 <0>         0.1030
     19 C11         4.6506    6.1431   -0.0076 C.2       1 <0>         0.5130
     20 O5          5.5049    5.2821   -0.0118 O.2       1 <0>        -0.5128
     21 N4          5.0047    7.4436   -0.0058 N.am      1 <0>        -0.6646
     22 C12         6.3551    7.8014    0.0890 C.ar      1 <0>         0.1603
     23 C13         6.7237    8.9462    0.7833 C.ar      1 <0>        -0.1209
     24 C14         8.0566    9.2953    0.8812 C.ar      1 <0>        -0.1039
     25 C15         9.0250    8.5114    0.2780 C.ar      1 <0>         0.0569
     26 C16         8.6596    7.3708   -0.4209 C.ar      1 <0>         0.0891
     27 C17         7.3262    7.0153   -0.5159 C.ar      1 <0>        -0.1308
     28 F1          9.6060    6.6066   -1.0087 F         1 <0>        -0.1223
     29 F2         10.3276    8.8577    0.3707 F         1 <0>        -0.1255
     30 H1          2.1778   -2.5873   -0.0188 H         1 <0>         0.1499
     31 H2          2.1452   -0.1292   -0.0142 H         1 <0>         0.1527
     32 H3         -2.1149   -2.6283   -0.0060 H         1 <0>         0.1722
     33 H4          2.0546   -4.4152   -0.0231 H         1 <0>         0.4010
     34 H5          1.2278   -5.8778   -0.0236 H         1 <0>         0.4121
     35 H6          2.2163    1.8147    0.8798 H         1 <0>         0.1254
     36 H7          2.2113    1.8186   -0.9001 H         1 <0>         0.1254
     37 H8          3.8709    3.7466   -0.0106 H         1 <0>         0.4153
     38 H9          2.7086    6.1650   -0.8921 H         1 <0>         0.1109
     39 H10         2.7136    6.1612    0.8879 H         1 <0>         0.1114
     40 H11         4.3239    8.1316   -0.0701 H         1 <0>         0.4219
     41 H12         5.9687    9.5612    1.2503 H         1 <0>         0.1474
     42 H13         8.3431   10.1833    1.4250 H         1 <0>         0.1542
     43 H14         7.0410    6.1273   -1.0604 H         1 <0>         0.1615
@<TRIPOS>BOND
     1    1    6 ar
     2    1    2 ar
     3    1   30 1
     4    2    3 ar
     5    2   31 1
     6    3    4 ar
     7    3   13 1
     8    4    5 ar
     9    4   10 1
    10    5    6 ar
    11    5   32 1
    12    6    7 1
    13    7    8 2
    14    7    9 am
    15    9   33 1
    16    9   34 1
    17   10   11 2
    18   10   12 1
    19   13   14 1
    20   14   15 1
    21   14   35 1
    22   14   36 1
    23   15   16 2
    24   15   17 am
    25   17   18 1
    26   17   37 1
    27   18   19 1
    28   18   38 1
    29   18   39 1
    30   19   20 2
    31   19   21 am
    32   21   22 1
    33   21   40 1
    34   22   27 ar
    35   22   23 ar
    36   23   24 ar
    37   23   41 1
    38   24   25 ar
    39   24   42 1
    40   25   26 ar
    41   25   29 1
    42   26   27 ar
    43   26   28 1
    44   27   43 1
@<TRIPOS>MOLECULE
ZINC24487556
   50    51     0     0     0
SMALL
USER_CHARGES
[2-[[(1S,2S)-2-methylcyclohexyl]carbamoylamino]-2-oxo-ethyl] 2-chloro-5-sulfamoyl-benzoate
@<TRIPOS>ATOM
      1 C1         -0.0187    1.5258    0.0104 C.3       1 <0>        -0.1490
      2 C2          0.0021   -0.0041    0.0020 C.3       1 <0>        -0.0948
      3 H1          0.5170   -0.3590   -0.9030 H         1 <0>         0.0770
      4 C3          0.7421   -0.5109    1.2415 C.3       1 <0>        -0.1133
      5 C4          0.7628   -2.0407    1.2331 C.3       1 <0>        -0.1230
      6 C5         -0.6726   -2.5703    1.2440 C.3       1 <0>        -0.1188
      7 C6         -1.4126   -2.0635    0.0045 C.3       1 <0>        -0.1305
      8 C7         -1.4333   -0.5336    0.0129 C.3       1 <0>         0.1698
      9 H2         -1.9780   -0.1583    0.8918 H         1 <0>         0.0897
     10 N1         -2.1419   -0.0483   -1.1740 N.am      1 <0>        -0.7433
     11 C8         -3.4850    0.0621   -1.1588 C.2       1 <0>         0.6988
     12 O1         -4.1084   -0.2409   -0.1604 O.2       1 <0>        -0.5307
     13 N2         -4.1369    0.5086   -2.2507 N.am      1 <0>        -0.7022
     14 C9         -5.4800    0.6190   -2.2355 C.2       1 <0>         0.5189
     15 O2         -6.1018    0.3167   -1.2396 O.2       1 <0>        -0.4414
     16 C10        -6.2089    1.1182   -3.4564 C.3       1 <0>         0.0517
     17 O3         -7.6360    1.1462   -3.1903 O.3       1 <0>        -0.3268
     18 C11        -8.4358    1.5716   -4.1875 C.2       1 <0>         0.5111
     19 O4         -7.9541    1.9099   -5.2502 O.2       1 <0>        -0.4769
     20 C12        -9.8978    1.6267   -3.9887 C.ar      1 <0>        -0.1410
     21 C13       -10.4552    1.2386   -2.7682 C.ar      1 <0>         0.0592
     22 C14       -11.8213    1.2929   -2.5892 C.ar      1 <0>        -0.6784
     23 C15       -12.6409    1.7309   -3.6152 C.ar      1 <0>         0.0236
     24 C16       -12.0974    2.1174   -4.8265 C.ar      1 <0>        -0.1413
     25 C17       -10.7301    2.0729   -5.0189 C.ar      1 <0>         0.0703
     26 Cl1       -10.0483    2.5642   -6.5379 Cl        1 <0>        -0.0077
     27 S1        -12.5258    0.8031   -1.0502 S.o2      1 <0>         2.6367
     28 O5        -13.8700    0.4291   -1.3196 O.2       1 <0>        -0.9791
     29 O6        -11.5960   -0.0825   -0.4415 O.2       1 <0>        -0.9384
     30 N3        -12.5928    2.1514   -0.0912 N.pl3     1 <0>        -1.1595
     31 H3          1.0133    1.9066    0.0026 H         1 <0>         0.0582
     32 H4         -0.5336    1.8805    0.9154 H         1 <0>         0.0564
     33 H5         -0.5508    1.8901   -0.8808 H         1 <0>         0.0552
     34 H6          1.7741   -0.1302    1.2336 H         1 <0>         0.0688
     35 H7          0.2273   -0.1561    2.1465 H         1 <0>         0.0665
     36 H8          1.2776   -2.3954    0.3281 H         1 <0>         0.0629
     37 H9          1.2949   -2.4051    2.1242 H         1 <0>         0.0653
     38 H10        -0.6577   -3.6702    1.2380 H         1 <0>         0.0659
     39 H11        -1.1875   -2.2156    2.1490 H         1 <0>         0.0655
     40 H12        -0.8977   -2.4183   -0.9005 H         1 <0>         0.0641
     41 H13        -2.4446   -2.4442    0.0123 H         1 <0>         0.0682
     42 H14        -1.5777    0.2260   -2.0776 H         1 <0>         0.4146
     43 H15        -3.5727    0.7829   -3.1543 H         1 <0>         0.4344
     44 H16        -5.8616    2.1328   -3.7015 H         1 <0>         0.1133
     45 H17        -6.0070    0.4468   -4.3040 H         1 <0>         0.1132
     46 H18        -9.8176    0.8963   -1.9665 H         1 <0>         0.1702
     47 H19       -13.7102    1.7712   -3.4688 H         1 <0>         0.1606
     48 H20       -12.7427    2.4586   -5.6224 H         1 <0>         0.1584
     49 H21       -13.0287    1.8868    0.8835 H         1 <0>         0.4180
     50 H22       -13.2171    2.9160   -0.5767 H         1 <0>         0.4096
@<TRIPOS>BOND
     1    1    2 1
     2    1   31 1
     3    1   32 1
     4    1   33 1
     5    2    3 1
     6    2    8 1
     7    2    4 1
     8    4    5 1
     9    4   34 1
    10    4   35 1
    11    5    6 1
    12    5   36 1
    13    5   37 1
    14    6    7 1
    15    6   38 1
    16    6   39 1
    17    7    8 1
    18    7   40 1
    19    7   41 1
    20    8    9 1
    21    8   10 1
    22   10   11 am
    23   10   42 1
    24   11   12 2
    25   11   13 am
    26   13   14 am
    27   13   43 1
    28   14   15 2
    29   14   16 1
    30   16   17 1
    31   16   44 1
    32   16   45 1
    33   17   18 1
    34   18   19 2
    35   18   20 1
    36   20   25 ar
    37   20   21 ar
    38   21   22 ar
    39   21   46 1
    40   22   23 ar
    41   22   27 1
    42   23   24 ar
    43   23   47 1
    44   24   25 ar
    45   24   48 1
    46   25   26 1
    47   27   28 2
    48   27   29 2
    49   27   30 1
    50   30   49 1
    51   30   50 1
@<TRIPOS>MOLECULE
ZINC13140143
   30    31     0     0     0
SMALL
USER_CHARGES

@<TRIPOS>ATOM
      1 C1          0.7819    1.3969   -1.1326 C.ar      1 <0>        -0.0082
      2 C2          1.1705    2.0871    0.0009 C.ar      1 <0>        -0.0331
      3 C3          1.5813    1.3979    1.1270 C.ar      1 <0>        -0.0081
      4 C4          1.6048    0.0160    1.1233 C.ar      1 <0>        -0.0881
      5 C5          1.2151   -0.6806   -0.0137 C.ar      1 <0>         0.2440
      6 C6          0.8030    0.0151   -1.1434 C.ar      1 <0>        -0.0864
      7 Br1         0.2708   -0.9277   -2.6938 Br        1 <0>         0.0156
      8 N1          1.2381   -2.0803   -0.0213 N.am      1 <0>        -0.6901
      9 C7          0.1563   -2.7743    0.3846 C.2       1 <0>         0.5497
     10 O1         -0.8671   -2.1895    0.6704 O.2       1 <0>        -0.4875
     11 C8          0.2184   -4.2768    0.4832 C.3       1 <0>        -0.1608
     12 S1         -1.3825   -4.9120    1.0528 S.3       1 <0>         0.1149
     13 C9         -1.1506   -6.6575    1.1155 C.2       1 <0>         0.2208
     14 N2         -2.0759   -7.5522    1.4808 N.2       1 <0>        -0.5567
     15 C10        -1.5695   -8.7650    1.4137 C.2       1 <0>         0.5483
     16 N3         -0.2903   -8.6603    0.9971 N.pl3     1 <0>        -0.5100
     17 H1          0.3350   -9.3879    0.8537 H         1 <0>         0.4387
     18 N4         -0.0447   -7.2911    0.8063 N.2       1 <0>        -0.3313
     19 N5         -2.2317   -9.9405    1.7176 N.pl3     1 <0>        -0.8216
     20 Br2         2.1675   -0.9254    2.6638 Br        1 <0>         0.0149
     21 N6          1.1471    3.5671    0.0085 N.pl3     1 <0>         0.0314
     22 O2          0.7886    4.1711   -0.9755 O.2       1 <0>        -0.1384
     23 O3          1.4866    4.1719    0.9988 O.3       1 <0>        -0.1387
     24 H2          0.4573    1.9383   -2.0089 H         1 <0>         0.1761
     25 H3          1.8845    1.9401    2.0105 H         1 <0>         0.1761
     26 H4          2.0326   -2.5508   -0.3186 H         1 <0>         0.4259
     27 H5          0.4479   -4.6960   -0.4964 H         1 <0>         0.1297
     28 H6          0.9956   -4.5626    1.1919 H         1 <0>         0.1303
     29 H7         -3.1560   -9.9145    2.0109 H         1 <0>         0.4277
     30 H8         -1.7720  -10.7908    1.6375 H         1 <0>         0.4149
@<TRIPOS>BOND
     1    1    6 ar
     2    1    2 ar
     3    1   24 1
     4    2    3 ar
     5    2   21 1
     6    3    4 ar
     7    3   25 1
     8    4    5 ar
     9    4   20 1
    10    5    6 ar
    11    5    8 1
    12    6    7 1
    13    8    9 am
    14    8   26 1
    15    9   10 2
    16    9   11 1
    17   11   12 1
    18   11   27 1
    19   11   28 1
    20   12   13 1
    21   13   18 2
    22   13   14 1
    23   14   15 2
    24   15   16 1
    25   15   19 1
    26   16   17 1
    27   16   18 1
    28   19   29 1
    29   19   30 1
    30   21   22 2
    31   21   23 1
@<TRIPOS>MOLECULE
ZINC29562189
   58    60     0     0     0
SMALL
USER_CHARGES

@<TRIPOS>ATOM
      1 C1         -0.0187    1.5258    0.0104 C.3       1 <0>        -0.1559
      2 C2          0.0021   -0.0041    0.0020 C.3       1 <0>        -0.1169
      3 C3         -1.4333   -0.5336    0.0129 C.3       1 <0>        -0.0404
      4 H1         -1.9701   -0.1109    0.8621 H         1 <0>         0.0768
      5 C4         -1.4133   -2.0590    0.1302 C.3       1 <0>        -0.0612
      6 C5         -0.8330   -2.4526    1.4642 C.2       1 <0>        -0.1071
      7 C6          0.4425   -2.7677    1.7263 C.2       1 <0>         0.0119
      8 O1          0.5856   -3.0658    3.0307 O.3       1 <0>        -0.1586
      9 C7         -0.5898   -2.9593    3.6816 C.ar      1 <0>         0.2971
     10 C8         -1.5490   -2.5621    2.7394 C.ar      1 <0>        -0.2154
     11 C9         -2.8796   -2.3647    3.1413 C.ar      1 <0>         0.4005
     12 C10        -3.1935   -2.5712    4.4785 C.ar      1 <0>        -0.3129
     13 C11        -2.1888   -2.9614    5.3580 C.ar      1 <0>         0.5188
     14 N1         -0.9448   -3.1475    4.9474 N.ar      1 <0>        -0.5228
     15 N2         -2.5005   -3.1683    6.6969 N.pl3     1 <0>        -0.8233
     16 N3         -3.8531   -1.9739    2.2289 N.pl3     1 <0>        -0.7967
     17 C12        -2.1247   -0.1373   -1.2662 C.ar      1 <0>        -0.0851
     18 C13        -1.6224   -0.5660   -2.4820 C.ar      1 <0>        -0.1235
     19 C14        -2.2505   -0.2067   -3.6566 C.ar      1 <0>        -0.0611
     20 C15        -3.3951    0.5911   -3.6165 C.ar      1 <0>        -0.0978
     21 C16        -3.8966    1.0202   -2.3866 C.ar      1 <0>        -0.0812
     22 C17        -3.2621    0.6491   -1.2191 C.ar      1 <0>        -0.1239
     23 C18        -4.0731    0.9804   -4.8713 C.2       1 <0>         0.5369
     24 O2         -3.6339    0.6055   -5.9410 O.2       1 <0>        -0.5482
     25 N4         -5.1781    1.7508   -4.8293 N.am      1 <0>        -0.6714
     26 C19        -5.8499    2.1365   -6.0727 C.3       1 <0>         0.0726
     27 H2         -5.7783    1.3211   -6.7924 H         1 <0>         0.0794
     28 C20        -7.3227    2.4351   -5.7852 C.3       1 <0>        -0.0835
     29 C21        -8.0229    1.1540   -5.3274 C.3       1 <0>        -0.1760
     30 C22        -9.4735    1.4481   -5.0443 C.2       1 <0>         0.4901
     31 O3         -9.9072    2.5776   -5.1947 O.co2     1 <0>        -0.6948
     32 O4        -10.2135    0.5565   -4.6648 O.co2     1 <0>        -0.7197
     33 C23        -5.1894    3.3666   -6.6398 C.2       1 <0>         0.4978
     34 O5         -5.1762    3.5508   -7.8450 O.co2     1 <0>        -0.6964
     35 O6         -4.6682    4.1777   -5.8935 O.co2     1 <0>        -0.6995
     36 H3          1.0039    1.9031    0.0027 H         1 <0>         0.0550
     37 H4         -0.5459    1.8868   -0.8726 H         1 <0>         0.0666
     38 H5         -0.5289    1.8773    0.9072 H         1 <0>         0.0503
     39 H6          0.5123   -0.3556   -0.8948 H         1 <0>         0.0718
     40 H7          0.5293   -0.3651    0.8851 H         1 <0>         0.0585
     41 H8         -2.4301   -2.4431    0.0488 H         1 <0>         0.0833
     42 H9         -0.8018   -2.4769   -0.6695 H         1 <0>         0.1017
     43 H10         1.2393   -2.7806    0.9974 H         1 <0>         0.2365
     44 H11        -4.2046   -2.4304    4.8310 H         1 <0>         0.1814
     45 H12        -3.4101   -3.0405    7.0085 H         1 <0>         0.4410
     46 H13        -1.8083   -3.4405    7.3196 H         1 <0>         0.4191
     47 H14        -3.6174   -1.8335    1.2985 H         1 <0>         0.4249
     48 H15        -4.7680   -1.8417    2.5227 H         1 <0>         0.4261
     49 H16        -0.7365   -1.1830   -2.5116 H         1 <0>         0.1227
     50 H17        -1.8573   -0.5417   -4.6050 H         1 <0>         0.1369
     51 H18        -4.7818    1.6377   -2.3488 H         1 <0>         0.1322
     52 H19        -3.6516    0.9768   -0.2666 H         1 <0>         0.1207
     53 H20        -5.5286    2.0499   -3.9757 H         1 <0>         0.3904
     54 H21        -7.3943    3.1885   -5.0007 H         1 <0>         0.0604
     55 H22        -7.8016    2.8071   -6.6910 H         1 <0>         0.0750
     56 H23        -7.9513    0.4007   -6.1119 H         1 <0>         0.0532
     57 H24        -7.5440    0.7821   -4.4216 H         1 <0>         0.0482
     58 H25        -0.2712   -3.4179    5.5909 H         1 <0>         0.4357
@<TRIPOS>BOND
     1    1    2 1
     2    1   36 1
     3    1   37 1
     4    1   38 1
     5    2    3 1
     6    2   39 1
     7    2   40 1
     8    3    4 1
     9    3    5 1
    10    3   17 1
    11    5    6 1
    12    5   41 1
    13    5   42 1
    14    6   10 1
    15    6    7 2
    16    7    8 1
    17    7   43 1
    18    8    9 1
    19    9   14 ar
    20    9   10 ar
    21   10   11 ar
    22   11   12 ar
    23   11   16 1
    24   12   13 ar
    25   12   44 1
    26   13   14 ar
    27   13   15 1
    28   14   58 1
    29   15   45 1
    30   15   46 1
    31   16   47 1
    32   16   48 1
    33   17   22 ar
    34   17   18 ar
    35   18   19 ar
    36   18   49 1
    37   19   20 ar
    38   19   50 1
    39   20   21 ar
    40   20   23 1
    41   21   22 ar
    42   21   51 1
    43   22   52 1
    44   23   24 2
    45   23   25 am
    46   25   26 1
    47   25   53 1
    48   26   27 1
    49   26   28 1
    50   26   33 1
    51   28   29 1
    52   28   54 1
    53   28   55 1
    54   29   30 1
    55   29   56 1
    56   29   57 1
    57   30   31 2
    58   30   32 1
    59   33   34 2
    60   33   35 1
@<TRIPOS>MOLECULE
ZINC05488851
   47    49     0     0     0
SMALL
USER_CHARGES
2-(4-methylsulfanyl-2-BLAHylcarbonylamino-butanoyl)aminoacetic acid
@<TRIPOS>ATOM
      1 C1          0.7037    6.0464    4.2550 C.3       1 <0>        -0.1166
      2 S1          2.4359    6.0029    3.7182 S.3       1 <0>        -0.2732
      3 C2          2.3515    5.3925    2.0121 C.3       1 <0>        -0.0677
      4 C3          3.7641    5.3063    1.4308 C.3       1 <0>        -0.1157
      5 C4          3.6929    4.7914   -0.0082 C.3       1 <0>         0.1494
      6 H1          3.0222    5.4254   -0.5882 H         1 <0>         0.1198
      7 C5          5.0691    4.8226   -0.6216 C.2       1 <0>         0.5024
      8 O1          5.5783    3.7970   -1.0212 O.2       1 <0>        -0.5390
      9 N1          5.7340    5.9903   -0.7261 N.am      1 <0>        -0.6946
     10 C6          7.0718    6.0206   -1.3224 C.3       1 <0>         0.0761
     11 C7          7.5909    7.4354   -1.3202 C.2       1 <0>         0.4596
     12 O2          6.9128    8.3269   -0.8670 O.co2     1 <0>        -0.6338
     13 N2          3.1884    3.4161   -0.0104 N.am      1 <0>        -0.7059
     14 C8          1.8605    3.1854    0.0010 C.2       1 <0>         0.7329
     15 O3          1.0815    4.1186    0.0131 O.2       1 <0>        -0.5604
     16 N3          1.3964    1.9201   -0.0010 N.am      1 <0>        -0.5417
     17 C9         -0.0188    1.5336    0.0105 C.3       1 <0>         0.1194
     18 C10         0.0021   -0.0041    0.0020 C.3       1 <0>         0.1030
     19 N4          1.4285   -0.3569   -0.0135 N.pl3     1 <0>        -0.5214
     20 C11         2.1808    0.7759   -0.0146 C.2       1 <0>         0.4856
     21 N5          3.4596    0.4478   -0.0289 N.2       1 <0>        -0.4970
     22 C12         3.5891   -0.9023   -0.0377 C.ar      1 <0>         0.0844
     23 C13         2.2923   -1.4403   -0.0280 C.ar      1 <0>         0.0700
     24 C14         2.1110   -2.8146   -0.0339 C.ar      1 <0>        -0.1072
     25 C15         3.2084   -3.6512   -0.0488 C.ar      1 <0>        -0.1080
     26 C16         4.4918   -3.1258   -0.0589 C.ar      1 <0>        -0.1211
     27 C17         4.6898   -1.7631   -0.0533 C.ar      1 <0>        -0.0665
     28 H2          0.6507    6.4053    5.2828 H         1 <0>         0.0988
     29 H3          0.1391    6.7163    3.6065 H         1 <0>         0.0759
     30 H4          0.2804    5.0435    4.1981 H         1 <0>         0.0712
     31 H5          1.7522    6.0762    1.4108 H         1 <0>         0.0913
     32 H6          1.8936    4.4034    2.0023 H         1 <0>         0.0804
     33 H7          4.3634    4.6226    2.0320 H         1 <0>         0.0836
     34 H8          4.2220    6.2954    1.4405 H         1 <0>         0.0976
     35 H9          5.3268    6.8106   -0.4065 H         1 <0>         0.4097
     36 H10         7.7426    5.3866   -0.7424 H         1 <0>         0.0763
     37 H11         7.0211    5.6538   -2.3475 H         1 <0>         0.0752
     38 H12         3.8099    2.6715   -0.0200 H         1 <0>         0.4266
     39 H13        -0.5238    1.9121   -0.8782 H         1 <0>         0.1063
     40 H14        -0.5067    1.9025    0.9127 H         1 <0>         0.1050
     41 H15        -0.4763   -0.3954    0.8998 H         1 <0>         0.1028
     42 H16        -0.4934   -0.3858   -0.8906 H         1 <0>         0.1030
     43 H17         1.1139   -3.2294   -0.0257 H         1 <0>         0.1208
     44 H18         3.0669   -4.7219   -0.0527 H         1 <0>         0.1302
     45 H19         5.3427   -3.7907   -0.0710 H         1 <0>         0.1319
     46 H20         5.6921   -1.3611   -0.0605 H         1 <0>         0.1361
     47 O4          8.8064    7.7051   -1.8216 O.co2     1 <0>        -0.7554
@<TRIPOS>BOND
     1    1    2 1
     2    1   28 1
     3    1   29 1
     4    1   30 1
     5    2    3 1
     6    3    4 1
     7    3   31 1
     8    3   32 1
     9    4    5 1
    10    4   33 1
    11    4   34 1
    12    5    6 1
    13    5    7 1
    14    5   13 1
    15    7    8 2
    16    7    9 am
    17    9   10 1
    18    9   35 1
    19   10   11 1
    20   10   36 1
    21   10   37 1
    22   11   12 2
    23   11   47 1
    24   13   14 am
    25   13   38 1
    26   14   15 2
    27   14   16 am
    28   16   20 1
    29   16   17 1
    30   17   18 1
    31   17   39 1
    32   17   40 1
    33   18   19 1
    34   18   41 1
    35   18   42 1
    36   19   23 1
    37   19   20 1
    38   20   21 2
    39   21   22 1
    40   22   27 ar
    41   22   23 ar
    42   23   24 ar
    43   24   25 ar
    44   24   43 1
    45   25   26 ar
    46   25   44 1
    47   26   27 ar
    48   26   45 1
    49   27   46 1
@<TRIPOS>MOLECULE
ZINC13197175
   60    62     0     0     0
SMALL
USER_CHARGES
3-[3-[(1S)-2-(cyclohexylcarbamoylamino)-1-methyl-2-oxo-ethyl]sulfanyl-5-(p-tolyl)-1,2,4-triazol-4-yl]propanoic acid
@<TRIPOS>ATOM
      1 C1          3.7172    6.5234    1.4677 C.3       1 <0>        -0.1156
      2 C2          3.0222    5.2538    1.8874 C.ar      1 <0>        -0.0751
      3 C3          3.3318    4.6684    3.1022 C.ar      1 <0>        -0.1242
      4 C4          2.6993    3.5061    3.4925 C.ar      1 <0>        -0.0728
      5 C5          1.7454    2.9206    2.6585 C.ar      1 <0>        -0.0235
      6 C6          1.4419    3.5132    1.4318 C.ar      1 <0>        -0.1060
      7 C7          2.0776    4.6785    1.0561 C.ar      1 <0>        -0.1133
      8 C8          1.0639    1.6749    3.0701 C.2       1 <0>         0.2268
      9 N1          1.4728    0.8278    3.9857 N.2       1 <0>        -0.2759
     10 N2          0.6391   -0.1448    4.0871 N.2       1 <0>        -0.2956
     11 C9         -0.3566    0.0246    3.2458 C.2       1 <0>         0.1421
     12 N3         -0.1185    1.1847    2.5657 N.pl3     1 <0>        -0.4421
     13 C10        -0.9519    1.7853    1.5211 C.3       1 <0>         0.1078
     14 C11        -0.5701    1.1952    0.1620 C.3       1 <0>        -0.1783
     15 C12        -1.4274    1.8130   -0.9125 C.2       1 <0>         0.4697
     16 O1         -2.2584    2.6403   -0.6211 O.co2     1 <0>        -0.6347
     17 S1         -1.7391   -1.0468    3.0331 S.3       1 <0>         0.0928
     18 C13        -1.3411   -2.3201    4.2565 C.3       1 <0>        -0.1164
     19 H1         -0.3448   -2.7154    4.0585 H         1 <0>         0.1295
     20 C14        -1.3780   -1.7092    5.6588 C.3       1 <0>        -0.1447
     21 C15        -2.3508   -3.4352    4.1676 C.2       1 <0>         0.5416
     22 O2         -3.4271   -3.2382    3.6454 O.2       1 <0>        -0.4439
     23 N4         -2.0574   -4.6515    4.6685 N.am      1 <0>        -0.6853
     24 C16        -2.9605   -5.6488    4.5890 C.2       1 <0>         0.6953
     25 O3         -4.0394   -5.4514    4.0656 O.2       1 <0>        -0.5239
     26 N5         -2.6670   -6.8652    5.0900 N.am      1 <0>        -0.7349
     27 C17        -3.6486   -7.9492    5.0035 C.3       1 <0>         0.1605
     28 C18        -4.6153   -7.8574    6.1859 C.3       1 <0>        -0.1310
     29 C19        -5.6405   -8.9895    6.0956 C.3       1 <0>        -0.1178
     30 C20        -4.9167  -10.3370    6.1321 C.3       1 <0>        -0.1220
     31 C21        -3.9500  -10.4289    4.9498 C.3       1 <0>        -0.1163
     32 C22        -2.9249   -9.2967    5.0400 C.3       1 <0>        -0.1259
     33 H2          4.6216    6.2758    0.9119 H         1 <0>         0.0718
     34 H3          3.0512    7.1101    0.8351 H         1 <0>         0.0684
     35 H4          3.9816    7.1024    2.3525 H         1 <0>         0.0663
     36 H5          4.0701    5.1225    3.7466 H         1 <0>         0.1272
     37 H6          2.9419    3.0502    4.4410 H         1 <0>         0.1339
     38 H7          0.7080    3.0627    0.7800 H         1 <0>         0.1412
     39 H8          1.8405    5.1405    0.1091 H         1 <0>         0.1307
     40 H9         -0.7946    2.8637    1.5061 H         1 <0>         0.1105
     41 H10        -2.0012    1.5739    1.7271 H         1 <0>         0.1048
     42 H11        -0.7274    0.1168    0.1770 H         1 <0>         0.0796
     43 H12         0.4792    1.4066   -0.0440 H         1 <0>         0.0754
     44 H13        -1.1383   -2.4760    6.3955 H         1 <0>         0.0694
     45 H14        -0.6477   -0.9027    5.7231 H         1 <0>         0.0959
     46 H15        -2.3743   -1.3139    5.8567 H         1 <0>         0.0718
     47 H16        -1.1963   -4.8091    5.0863 H         1 <0>         0.4115
     48 H17        -1.8059   -7.0228    5.5077 H         1 <0>         0.3976
     49 H18        -4.2059   -7.8613    4.0709 H         1 <0>         0.0916
     50 H19        -4.0580   -7.9453    7.1185 H         1 <0>         0.0634
     51 H20        -5.1310   -6.8974    6.1599 H         1 <0>         0.0693
     52 H21        -6.1978   -8.9016    5.1630 H         1 <0>         0.0659
     53 H22        -6.3292   -8.9241    6.9380 H         1 <0>         0.0651
     54 H23        -5.6470  -11.1436    6.0678 H         1 <0>         0.0637
     55 H24        -4.3594  -10.4250    7.0647 H         1 <0>         0.0622
     56 H25        -4.5073  -10.3409    4.0171 H         1 <0>         0.0666
     57 H26        -3.4344  -11.3889    4.9757 H         1 <0>         0.0676
     58 H27        -2.2362   -9.3621    4.1977 H         1 <0>         0.0703
     59 H28        -2.3676   -9.3847    5.9726 H         1 <0>         0.0685
     60 O4         -1.2677    1.4442   -2.1932 O.co2     1 <0>        -0.7573
@<TRIPOS>BOND
     1    1    2 1
     2    1   33 1
     3    1   34 1
     4    1   35 1
     5    2    7 ar
     6    2    3 ar
     7    3    4 ar
     8    3   36 1
     9    4    5 ar
    10    4   37 1
    11    5    6 ar
    12    5    8 1
    13    6    7 ar
    14    6   38 1
    15    7   39 1
    16    8   12 1
    17    8    9 2
    18    9   10 1
    19   10   11 2
    20   11   12 1
    21   11   17 1
    22   12   13 1
    23   13   14 1
    24   13   40 1
    25   13   41 1
    26   14   15 1
    27   14   42 1
    28   14   43 1
    29   15   16 2
    30   15   60 1
    31   17   18 1
    32   18   19 1
    33   18   20 1
    34   18   21 1
    35   20   44 1
    36   20   45 1
    37   20   46 1
    38   21   22 2
    39   21   23 am
    40   23   24 am
    41   23   47 1
    42   24   25 2
    43   24   26 am
    44   26   27 1
    45   26   48 1
    46   27   32 1
    47   27   28 1
    48   27   49 1
    49   28   29 1
    50   28   50 1
    51   28   51 1
    52   29   30 1
    53   29   52 1
    54   29   53 1
    55   30   31 1
    56   30   54 1
    57   30   55 1
    58   31   32 1
    59   31   56 1
    60   31   57 1
    61   32   58 1
    62   32   59 1
@<TRIPOS>MOLECULE
ZINC13266023
   55    56     0     0     0
SMALL
USER_CHARGES
3-isobutyl-4-oxo-2-[2-oxo-2-(sec-butylcarbamoylamino)ethyl]sulfanyl-quinazoline-7-carboxylic acid
@<TRIPOS>ATOM
      1 C1         -1.8030   -4.0149   -2.0860 C.3       1 <0>        -0.1545
      2 C2         -2.1712   -4.1720   -0.6093 C.3       1 <0>        -0.1315
      3 C3         -2.3962   -2.7911    0.0099 C.3       1 <0>         0.1560
      4 H1         -3.1447   -2.2506   -0.5695 H         1 <0>         0.0912
      5 C4         -2.8849   -2.9518    1.4508 C.3       1 <0>        -0.1667
      6 N1         -1.1375   -2.0414    0.0020 N.am      1 <0>        -0.7314
      7 C5         -1.1558   -0.6938    0.0094 C.2       1 <0>         0.6965
      8 O1         -2.2165   -0.1005    0.0227 O.2       1 <0>        -0.5287
      9 N2          0.0021   -0.0041    0.0020 N.am      1 <0>        -0.6866
     10 C6         -0.0162    1.3436    0.0094 C.2       1 <0>         0.5403
     11 O2         -1.0742    1.9354    0.0177 O.2       1 <0>        -0.4543
     12 C7          1.2785    2.1147    0.0012 C.3       1 <0>        -0.1601
     13 S1          0.9237    3.8896    0.0141 S.3       1 <0>         0.0731
     14 C8          2.5652    4.5299    0.0019 C.2       1 <0>         0.3370
     15 N3          3.5655    3.6839   -0.0122 N.2       1 <0>        -0.5149
     16 C9          4.8515    4.1071   -0.0222 C.ar      1 <0>         0.1385
     17 C10         5.9170    3.2026   -0.0377 C.ar      1 <0>        -0.0736
     18 C11         7.2203    3.6832   -0.0480 C.ar      1 <0>        -0.0669
     19 C12         7.4693    5.0619   -0.0434 C.ar      1 <0>        -0.0870
     20 C13         6.4365    5.9547   -0.0283 C.ar      1 <0>        -0.0629
     21 C14         5.1202    5.4944   -0.0173 C.ar      1 <0>        -0.1955
     22 C15         3.9775    6.4215   -0.0014 C.2       1 <0>         0.5572
     23 O3          4.1435    7.6271    0.0035 O.2       1 <0>        -0.5139
     24 N4          2.7355    5.8848    0.0020 N.am      1 <0>        -0.5271
     25 C16         1.5640    6.7643    0.0121 C.3       1 <0>         0.0935
     26 C17         1.1674    7.0690    1.4581 C.3       1 <0>        -0.1118
     27 C18         0.0235    8.0849    1.4700 C.3       1 <0>        -0.1425
     28 C19         0.7116    5.7797    2.1444 C.3       1 <0>        -0.1549
     29 C20         8.3537    2.7322   -0.0644 C.2       1 <0>         0.4882
     30 O4          8.1428    1.5363   -0.0689 O.co2     1 <0>        -0.6223
     31 H2         -2.6135   -3.5090   -2.6107 H         1 <0>         0.0561
     32 H3         -0.8905   -3.4250   -2.1722 H         1 <0>         0.0554
     33 H4         -1.6428   -4.9986   -2.5271 H         1 <0>         0.0573
     34 H5         -1.3607   -4.6778   -0.0846 H         1 <0>         0.0696
     35 H6         -3.0837   -4.7618   -0.5231 H         1 <0>         0.0809
     36 H7         -2.1364   -3.4922    2.0303 H         1 <0>         0.0576
     37 H8         -3.0452   -1.9680    1.8920 H         1 <0>         0.0625
     38 H9         -3.8214   -3.5096    1.4568 H         1 <0>         0.0672
     39 H10        -0.2910   -2.5149   -0.0087 H         1 <0>         0.3991
     40 H11         0.8486   -0.4776   -0.0086 H         1 <0>         0.4147
     41 H12         1.8621    1.8544    0.8843 H         1 <0>         0.1378
     42 H13         1.8451    1.8640   -0.8956 H         1 <0>         0.1361
     43 H14         5.7287    2.1391   -0.0420 H         1 <0>         0.1442
     44 H15         8.4876    5.4217   -0.0515 H         1 <0>         0.1430
     45 H16         6.6386    7.0156   -0.0252 H         1 <0>         0.1336
     46 H17         1.8037    7.6947   -0.5026 H         1 <0>         0.1034
     47 H18         0.7351    6.2712   -0.4957 H         1 <0>         0.0959
     48 H19         2.0246    7.4807    1.9909 H         1 <0>         0.0779
     49 H20        -0.8336    7.6732    0.9373 H         1 <0>         0.0599
     50 H21        -0.2589    8.3020    2.5002 H         1 <0>         0.0616
     51 H22         0.3483    9.0034    0.9811 H         1 <0>         0.0579
     52 H23         0.4291    5.9967    3.1745 H         1 <0>         0.0597
     53 H24        -0.1456    5.3680    1.6116 H         1 <0>         0.0715
     54 H25         1.5266    5.0559    2.1359 H         1 <0>         0.0560
     55 O5          9.6192    3.1929   -0.0745 O.co2     1 <0>        -0.7434
@<TRIPOS>BOND
     1    1    2 1
     2    1   31 1
     3    1   32 1
     4    1   33 1
     5    2    3 1
     6    2   34 1
     7    2   35 1
     8    3    4 1
     9    3    5 1
    10    3    6 1
    11    5   36 1
    12    5   37 1
    13    5   38 1
    14    6    7 am
    15    6   39 1
    16    7    8 2
    17    7    9 am
    18    9   10 am
    19    9   40 1
    20   10   11 2
    21   10   12 1
    22   12   13 1
    23   12   41 1
    24   12   42 1
    25   13   14 1
    26   14   24 1
    27   14   15 2
    28   15   16 1
    29   16   21 ar
    30   16   17 ar
    31   17   18 ar
    32   17   43 1
    33   18   19 ar
    34   18   29 1
    35   19   20 ar
    36   19   44 1
    37   20   21 ar
    38   20   45 1
    39   21   22 1
    40   22   23 2
    41   22   24 am
    42   24   25 1
    43   25   26 1
    44   25   46 1
    45   25   47 1
    46   26   27 1
    47   26   28 1
    48   26   48 1
    49   27   49 1
    50   27   50 1
    51   27   51 1
    52   28   52 1
    53   28   53 1
    54   28   54 1
    55   29   30 2
    56   29   55 1
@<TRIPOS>MOLECULE
ZINC38557554
   60    60     0     0     0
SMALL
USER_CHARGES

@<TRIPOS>ATOM
      1 C1         -0.6230    1.3542    0.3199 C.3       1 <0>        -0.1610
      2 C2          0.0026   -0.0052    0.0012 C.3       1 <0>         0.1418
      3 H1          0.6349    0.0839   -0.8822 H         1 <0>         0.1175
      4 C3          0.8356   -0.4615    1.1712 C.2       1 <0>         0.5159
      5 O1          0.3680   -1.2285    1.9861 O.2       1 <0>        -0.5356
      6 N1          2.1002   -0.0173    1.3121 N.am      1 <0>        -0.6030
      7 C4          2.6420    1.0002    0.4012 C.3       1 <0>         0.1006
      8 C5          3.9501    0.4771   -0.2006 C.3       1 <0>        -0.1159
      9 C6          4.9011    0.0740    0.9287 C.3       1 <0>        -0.1035
     10 C7          4.2675   -1.0470    1.7558 C.3       1 <0>        -0.1254
     11 C8          2.9613   -0.5370    2.3832 C.3       1 <0>         0.1154
     12 C9          6.2019   -0.4093    0.3411 C.2       1 <0>         0.5108
     13 O2          6.3535   -0.4295   -0.8621 O.2       1 <0>        -0.5460
     14 N2          7.1969   -0.8192    1.1525 N.am      1 <0>        -0.6941
     15 C10         8.4615   -1.2891    0.5813 C.3       1 <0>         0.0750
     16 H2          8.6892   -0.7162   -0.3176 H         1 <0>         0.0779
     17 C11         9.5840   -1.1012    1.6038 C.3       1 <0>        -0.0860
     18 C12         9.3274   -2.0013    2.8141 C.3       1 <0>        -0.1415
     19 C13        10.9233   -1.4747    0.9652 C.3       1 <0>        -0.1404
     20 C14         8.3418   -2.7495    0.2294 C.2       1 <0>         0.4984
     21 O3          8.9866   -3.2078   -0.6984 O.co2     1 <0>        -0.6940
     22 O4          7.6002   -3.4727    0.8724 O.co2     1 <0>        -0.6900
     23 N3         -1.0580   -0.9831   -0.2540 N.am      1 <0>        -0.6959
     24 C15        -1.5966   -1.0872   -1.4851 C.2       1 <0>         0.6562
     25 O5         -1.2025   -0.3700   -2.3833 O.2       1 <0>        -0.5649
     26 O6         -2.5713   -1.9858   -1.7197 O.3       1 <0>        -0.3562
     27 C16        -3.0963   -2.0418   -3.0476 C.3       1 <0>         0.1341
     28 C17        -1.9726   -2.3893   -4.0260 C.3       1 <0>        -0.1876
     29 C18        -4.1858   -3.1136   -3.1205 C.3       1 <0>        -0.1403
     30 C19        -3.6927   -0.6823   -3.4179 C.3       1 <0>        -0.1851
     31 H3          0.1637    2.0674    0.5662 H         1 <0>         0.0762
     32 H4         -1.1783    1.7109   -0.5476 H         1 <0>         0.0771
     33 H5         -1.3000    1.2527    1.1681 H         1 <0>         0.0678
     34 H6          1.9252    1.1955   -0.3965 H         1 <0>         0.0905
     35 H7          2.8360    1.9194    0.9540 H         1 <0>         0.0780
     36 H8          3.7411   -0.3900   -0.8271 H         1 <0>         0.0777
     37 H9          4.4117    1.2592   -0.8032 H         1 <0>         0.0868
     38 H10         5.0901    0.9355    1.5692 H         1 <0>         0.0938
     39 H11         4.0556   -1.8997    1.1108 H         1 <0>         0.0780
     40 H12         4.9552   -1.3496    2.5455 H         1 <0>         0.0856
     41 H13         3.1808    0.2593    3.0943 H         1 <0>         0.0730
     42 H14         2.4552   -1.3564    2.8937 H         1 <0>         0.0970
     43 H15         7.0757   -0.8031    2.1148 H         1 <0>         0.3902
     44 H16         9.6124   -0.0599    1.9249 H         1 <0>         0.0582
     45 H17        10.1271   -1.8674    3.5425 H         1 <0>         0.0426
     46 H18         8.3733   -1.7352    3.2690 H         1 <0>         0.0460
     47 H19         9.2989   -3.0425    2.4929 H         1 <0>         0.0723
     48 H20        11.1061   -0.8334    0.1030 H         1 <0>         0.0503
     49 H21        11.7230   -1.3409    1.6937 H         1 <0>         0.0456
     50 H22        10.8948   -2.5160    0.6441 H         1 <0>         0.0722
     51 H23        -1.3727   -1.5556    0.4630 H         1 <0>         0.4158
     52 H24        -1.5477   -3.3578   -3.7622 H         1 <0>         0.0606
     53 H25        -2.3731   -2.4320   -5.0389 H         1 <0>         0.0696
     54 H26        -1.1965   -1.6257   -3.9740 H         1 <0>         0.0890
     55 H27        -4.9863   -2.8660   -2.4235 H         1 <0>         0.0659
     56 H28        -4.5862   -3.1562   -4.1334 H         1 <0>         0.0800
     57 H29        -3.7609   -4.0821   -2.8567 H         1 <0>         0.0673
     58 H30        -2.9166    0.0813   -3.3659 H         1 <0>         0.0884
     59 H31        -4.0932   -0.7250   -4.4307 H         1 <0>         0.0693
     60 H32        -4.4933   -0.4347   -2.7208 H         1 <0>         0.0583
@<TRIPOS>BOND
     1    1    2 1
     2    1   31 1
     3    1   32 1
     4    1   33 1
     5    2    3 1
     6    2    4 1
     7    2   23 1
     8    4    5 2
     9    4    6 am
    10    6   11 1
    11    6    7 1
    12    7    8 1
    13    7   34 1
    14    7   35 1
    15    8    9 1
    16    8   36 1
    17    8   37 1
    18    9   10 1
    19    9   12 1
    20    9   38 1
    21   10   11 1
    22   10   39 1
    23   10   40 1
    24   11   41 1
    25   11   42 1
    26   12   13 2
    27   12   14 am
    28   14   15 1
    29   14   43 1
    30   15   16 1
    31   15   17 1
    32   15   20 1
    33   17   18 1
    34   17   19 1
    35   17   44 1
    36   18   45 1
    37   18   46 1
    38   18   47 1
    39   19   48 1
    40   19   49 1
    41   19   50 1
    42   20   21 2
    43   20   22 1
    44   23   24 am
    45   23   51 1
    46   24   25 2
    47   24   26 1
    48   26   27 1
    49   27   28 1
    50   27   29 1
    51   27   30 1
    52   28   52 1
    53   28   53 1
    54   28   54 1
    55   29   55 1
    56   29   56 1
    57   29   57 1
    58   30   58 1
    59   30   59 1
    60   30   60 1
@<TRIPOS>MOLECULE
ZINC44839077
   52    54     0     0     0
SMALL
USER_CHARGES

@<TRIPOS>ATOM
      1 C1         -4.6762   -2.1656    7.1212 C.3       1 <0>         0.0259
      2 O1         -5.7064   -2.7133    6.2960 O.3       1 <0>        -0.3158
      3 C2         -5.5307   -2.6268    4.9502 C.ar      1 <0>         0.1213
      4 C3         -4.3875   -2.0322    4.4372 C.ar      1 <0>        -0.1917
      5 C4         -4.2083   -1.9439    3.0706 C.ar      1 <0>        -0.0861
      6 C5         -5.1731   -2.4508    2.2101 C.ar      1 <0>         0.1063
      7 C6         -6.3173   -3.0460    2.7246 C.ar      1 <0>        -0.1103
      8 C7         -6.4923   -3.1384    4.0914 C.ar      1 <0>        -0.1275
      9 N1         -4.9926   -2.3614    0.8253 N.pl3     1 <0>        -1.0557
     10 S1         -5.2779   -3.6809   -0.1338 S.o2      1 <0>         2.6935
     11 O2         -6.5833   -4.1415    0.1870 O.2       1 <0>        -0.9520
     12 O3         -4.9032   -3.3121   -1.4539 O.2       1 <0>        -0.9559
     13 C8         -4.1594   -4.9447    0.3727 C.ar      1 <0>        -0.7022
     14 C9         -2.8725   -4.9701   -0.1328 C.ar      1 <0>         0.0036
     15 C10        -1.9934   -5.9596    0.2618 C.ar      1 <0>        -0.1756
     16 C11        -2.4031   -6.9295    1.1676 C.ar      1 <0>         0.2269
     17 C12        -3.6962   -6.9008    1.6737 C.ar      1 <0>        -0.1446
     18 C13        -4.5686   -5.9056    1.2790 C.ar      1 <0>         0.0061
     19 N2         -1.5156   -7.9331    1.5689 N.am      1 <0>        -0.6821
     20 C14        -1.9760   -9.1698    1.8426 C.2       1 <0>         0.5785
     21 O4         -3.1462   -9.4392    1.6509 O.2       1 <0>        -0.5317
     22 C15        -1.0605  -10.1965    2.3746 C.ar      1 <0>        -0.2587
     23 C16         0.2839   -9.8867    2.6010 C.ar      1 <0>        -0.0210
     24 C17         1.1361  -10.8465    3.0974 C.ar      1 <0>        -0.2578
     25 C18         0.6612  -12.1254    3.3740 C.ar      1 <0>         0.3281
     26 C19        -0.6776  -12.4379    3.1499 C.ar      1 <0>        -0.1076
     27 C20        -1.5366  -11.4799    2.6591 C.ar      1 <0>         0.0025
     28 Cl1        -1.2653  -14.0342    3.4963 Cl        1 <0>        -0.0798
     29 N3          1.5256  -13.0935    3.8749 N.2       1 <0>        -1.0662
     30 S2          3.0999  -12.7043    4.2102 S.o2      1 <0>         2.5291
     31 O5          3.6595  -12.3436    2.9548 O.2       1 <0>        -1.0237
     32 O6          3.0222  -11.7579    5.2674 O.2       1 <0>        -1.0217
     33 C21         3.8449  -14.2471    4.8062 C.3       1 <0>        -0.6348
     34 H1         -4.9407   -2.3004    8.1700 H         1 <0>         0.1006
     35 H2         -3.7356   -2.6764    6.9152 H         1 <0>         0.0573
     36 H3         -4.5666   -1.1023    6.9079 H         1 <0>         0.0552
     37 H4         -3.6373   -1.6377    5.1066 H         1 <0>         0.1328
     38 H5         -3.3182   -1.4805    2.6714 H         1 <0>         0.1312
     39 H6         -7.0682   -3.4404    2.0560 H         1 <0>         0.1625
     40 H7         -7.3799   -3.6056    4.4917 H         1 <0>         0.1392
     41 H8         -4.7003   -1.5266    0.4272 H         1 <0>         0.4244
     42 H9         -2.5546   -4.2157   -0.8371 H         1 <0>         0.1393
     43 H10        -0.9887   -5.9793   -0.1339 H         1 <0>         0.1362
     44 H11        -4.0179   -7.6537    2.3780 H         1 <0>         0.1473
     45 H12        -5.5729   -5.8801    1.6756 H         1 <0>         0.1423
     46 H13        -0.5687   -7.7391    1.6502 H         1 <0>         0.4140
     47 H14         0.6535   -8.8949    2.3860 H         1 <0>         0.1091
     48 H15         2.1746  -10.6073    3.2723 H         1 <0>         0.1176
     49 H16        -2.5755  -11.7210    2.4895 H         1 <0>         0.1304
     50 H17         3.7744  -15.0084    4.0293 H         1 <0>         0.1183
     51 H18         4.8928  -14.0738    5.0510 H         1 <0>         0.1048
     52 H19         3.3150  -14.5863    5.6963 H         1 <0>         0.1184
@<TRIPOS>BOND
     1    1    2 1
     2    1   34 1
     3    1   35 1
     4    1   36 1
     5    2    3 1
     6    3    8 ar
     7    3    4 ar
     8    4    5 ar
     9    4   37 1
    10    5    6 ar
    11    5   38 1
    12    6    7 ar
    13    6    9 1
    14    7    8 ar
    15    7   39 1
    16    8   40 1
    17    9   10 1
    18    9   41 1
    19   10   11 2
    20   10   12 2
    21   10   13 1
    22   13   18 ar
    23   13   14 ar
    24   14   15 ar
    25   14   42 1
    26   15   16 ar
    27   15   43 1
    28   16   17 ar
    29   16   19 1
    30   17   18 ar
    31   17   44 1
    32   18   45 1
    33   19   20 am
    34   19   46 1
    35   20   21 2
    36   20   22 1
    37   22   27 ar
    38   22   23 ar
    39   23   24 ar
    40   23   47 1
    41   24   25 ar
    42   24   48 1
    43   25   26 ar
    44   25   29 1
    45   26   27 ar
    46   26   28 1
    47   27   49 1
    48   29   30 1
    49   30   31 2
    50   30   32 2
    51   30   33 1
    52   33   50 1
    53   33   51 1
    54   33   52 1
@<TRIPOS>MOLECULE
ZINC04521149
   39    40     0     0     0
SMALL
USER_CHARGES
2-(hydroxymethyl)-6-(4-methylaminophenyl)sulfanyl-tetrahydropyran-3,4,5-triol
@<TRIPOS>ATOM
      1 C1         -3.7168    3.0718    0.0528 C.3       1 <0>         0.0913
      2 N1         -2.4583    3.8217    0.0453 N.pl3     1 <0>        -0.7529
      3 C2         -1.2364    3.1385    0.0304 C.ar      1 <0>         0.2154
      4 C3         -1.2175    1.7499    0.0173 C.ar      1 <0>        -0.1818
      5 C4         -0.0126    1.0758    0.0080 C.ar      1 <0>        -0.0462
      6 C5          1.1809    1.7868    0.0004 C.ar      1 <0>        -0.1443
      7 C6          1.1617    3.1758    0.0081 C.ar      1 <0>        -0.0608
      8 C7         -0.0435    3.8494    0.0232 C.ar      1 <0>        -0.1766
      9 S1          2.7187    0.9269   -0.0196 S.3       1 <0>        -0.0773
     10 C8          3.9607    2.2489   -0.0241 C.3       1 <0>         0.0651
     11 H1          3.7203    2.9708   -0.8046 H         1 <0>         0.0840
     12 C9          5.3437    1.6493   -0.2917 C.3       1 <0>         0.0707
     13 H2          5.3557    1.1877   -1.2791 H         1 <0>         0.0740
     14 C10         6.3941    2.7626   -0.2343 C.3       1 <0>         0.0819
     15 H3          6.2002    3.4880   -1.0244 H         1 <0>         0.0783
     16 C11         6.3147    3.4547    1.1299 C.3       1 <0>         0.0940
     17 H4          7.0211    4.2842    1.1593 H         1 <0>         0.0714
     18 C12         4.8942    3.9846    1.3426 C.3       1 <0>         0.0975
     19 H5          4.6661    4.7294    0.5801 H         1 <0>         0.0770
     20 O1          3.9645    2.9036    1.2461 O.3       1 <0>        -0.3283
     21 C13         4.7905    4.6246    2.7284 C.3       1 <0>         0.0909
     22 O2          3.5013    5.2215    2.8822 O.3       1 <0>        -0.5682
     23 O3          6.6339    2.5173    2.1602 O.3       1 <0>        -0.5284
     24 O4          7.6963    2.2008   -0.4102 O.3       1 <0>        -0.5483
     25 O5          5.6366    0.6631    0.7001 O.3       1 <0>        -0.5189
     26 H6         -3.7741    2.4493   -0.8401 H         1 <0>         0.0530
     27 H7         -3.7578    2.4396    0.9398 H         1 <0>         0.0532
     28 H8         -4.5549    3.7687    0.0642 H         1 <0>         0.0741
     29 H9         -2.4716    4.7916    0.0506 H         1 <0>         0.4014
     30 H10        -2.1454    1.1973    0.0187 H         1 <0>         0.1271
     31 H11         0.0021   -0.0041    0.0020 H         1 <0>         0.1267
     32 H12         2.0894    3.7287    0.0018 H         1 <0>         0.1221
     33 H13        -0.0584    4.9293    0.0292 H         1 <0>         0.1235
     34 H14         4.9306    3.8604    3.4930 H         1 <0>         0.0690
     35 H15         5.5600    5.3894    2.8339 H         1 <0>         0.0612
     36 H16         3.3648    5.6473    3.7396 H         1 <0>         0.3829
     37 H17         7.5197    2.1368    2.0850 H         1 <0>         0.3840
     38 H18         7.8154    1.7401   -1.2520 H         1 <0>         0.3860
     39 H19         5.0074   -0.0709    0.7228 H         1 <0>         0.3762
@<TRIPOS>BOND
     1    1    2 1
     2    1   26 1
     3    1   27 1
     4    1   28 1
     5    2    3 1
     6    2   29 1
     7    3    8 ar
     8    3    4 ar
     9    4    5 ar
    10    4   30 1
    11    5    6 ar
    12    5   31 1
    13    6    7 ar
    14    6    9 1
    15    7    8 ar
    16    7   32 1
    17    8   33 1
    18    9   10 1
    19   10   11 1
    20   10   20 1
    21   10   12 1
    22   12   13 1
    23   12   14 1
    24   12   25 1
    25   14   15 1
    26   14   16 1
    27   14   24 1
    28   16   17 1
    29   16   18 1
    30   16   23 1
    31   18   19 1
    32   18   20 1
    33   18   21 1
    34   21   22 1
    35   21   34 1
    36   21   35 1
    37   22   36 1
    38   23   37 1
    39   24   38 1
    40   25   39 1
@<TRIPOS>MOLECULE
ZINC06108841
   40    42     0     0     0
SMALL
USER_CHARGES
(2R)-2-[(4-amino-5,6,7,8-tetrahydrobenzothiopheno[3,2-e]pyrimidin-2-yl)sulfanyl]-N-carbamoyl-propanamide
@<TRIPOS>ATOM
      1 C1          1.2202    7.1956   -3.5492 C.3       1 <0>        -0.1442
      2 C2          1.8140    8.0352   -2.4163 C.3       1 <0>        -0.1174
      3 H1          1.1095    8.0744   -1.5855 H         1 <0>         0.1286
      4 C3          2.0822    9.4322   -2.9139 C.2       1 <0>         0.5383
      5 O1          3.1844    9.7291   -3.3222 O.2       1 <0>        -0.4448
      6 N1          1.0967   10.3515   -2.9050 N.am      1 <0>        -0.6845
      7 C4          1.3365   11.6009   -3.3500 C.2       1 <0>         0.6969
      8 O2          2.4415   11.8985   -3.7593 O.2       1 <0>        -0.5283
      9 N2          0.3510   12.5202   -3.3411 N.am      1 <0>        -0.8552
     10 S1          3.3640    7.2856   -1.8582 S.3       1 <0>         0.1045
     11 C5          2.7524    5.7665   -1.2078 C.ar      1 <0>         0.3380
     12 N3          1.4491    5.5343   -1.2638 N.ar      1 <0>        -0.5996
     13 C6          0.8727    4.4258   -0.8065 C.ar      1 <0>         0.5060
     14 C7          1.7479    3.4591   -0.2310 C.ar      1 <0>        -0.2488
     15 C8          1.3793    2.1723    0.3378 C.2       1 <0>        -0.0805
     16 C9          2.3857    1.4156    0.8295 C.2       1 <0>        -0.1526
     17 S2          3.8602    2.3681    0.5631 S.3       1 <0>         0.1265
     18 C10         3.1290    3.7769   -0.2059 C.ar      1 <0>         0.1438
     19 N4          3.6236    4.9026   -0.6818 N.ar      1 <0>        -0.4734
     20 C11         2.2775    0.0627    1.4629 C.3       1 <0>        -0.0412
     21 C12         0.8051   -0.1953    1.8124 C.3       1 <0>        -0.1152
     22 C13        -0.0564    0.1593    0.5967 C.3       1 <0>        -0.1202
     23 C14        -0.0627    1.6739    0.3901 C.3       1 <0>        -0.0714
     24 N5         -0.4931    4.2235   -0.8851 N.pl3     1 <0>        -0.8266
     25 H2          0.2868    7.6470   -3.8853 H         1 <0>         0.0694
     26 H3          1.9247    7.1563   -4.3800 H         1 <0>         0.0717
     27 H4          1.0263    6.1851   -3.1893 H         1 <0>         0.0948
     28 H5          0.2148   10.1140   -2.5783 H         1 <0>         0.4123
     29 H6         -0.5309   12.2827   -3.0144 H         1 <0>         0.4005
     30 H7          0.5237   13.4194   -3.6613 H         1 <0>         0.4224
     31 H8          2.8799    0.0342    2.3709 H         1 <0>         0.0860
     32 H9          2.6268   -0.6977    0.7643 H         1 <0>         0.0876
     33 H10         0.5159    0.4266    2.6595 H         1 <0>         0.0697
     34 H11         0.6655   -1.2463    2.0656 H         1 <0>         0.0780
     35 H12        -1.0763   -0.1882    0.7616 H         1 <0>         0.0737
     36 H13         0.3527   -0.3256   -0.2897 H         1 <0>         0.0696
     37 H14        -0.5655    1.9124   -0.5471 H         1 <0>         0.0785
     38 H15        -0.5846    2.1531    1.2184 H         1 <0>         0.0807
     39 H16        -1.0298    4.7647   -1.4851 H         1 <0>         0.4098
     40 H17        -0.9144    3.5405   -0.3403 H         1 <0>         0.4168
@<TRIPOS>BOND
     1    1    2 1
     2    1   25 1
     3    1   26 1
     4    1   27 1
     5    2    3 1
     6    2    4 1
     7    2   10 1
     8    4    5 2
     9    4    6 am
    10    6    7 am
    11    6   28 1
    12    7    8 2
    13    7    9 am
    14    9   29 1
    15    9   30 1
    16   10   11 1
    17   11   19 ar
    18   11   12 ar
    19   12   13 ar
    20   13   14 ar
    21   13   24 1
    22   14   18 ar
    23   14   15 1
    24   15   23 1
    25   15   16 2
    26   16   17 1
    27   16   20 1
    28   17   18 1
    29   18   19 ar
    30   20   21 1
    31   20   31 1
    32   20   32 1
    33   21   22 1
    34   21   33 1
    35   21   34 1
    36   22   23 1
    37   22   35 1
    38   22   36 1
    39   23   37 1
    40   23   38 1
    41   24   39 1
    42   24   40 1
@<TRIPOS>MOLECULE
ZINC38092073
   39    40     0     0     0
SMALL
USER_CHARGES

@<TRIPOS>ATOM
      1 C1         -0.0168    1.3849    0.0097 C.ar      1 <0>        -0.2167
      2 C2          1.1707    2.0901    0.0021 C.ar      1 <0>         0.0291
      3 C3          2.3774    1.4150   -0.0135 C.ar      1 <0>        -0.7330
      4 C4          2.3998    0.0323   -0.0211 C.ar      1 <0>         0.0295
      5 C5          1.2161   -0.6790   -0.0137 C.ar      1 <0>        -0.2193
      6 C6          0.0021   -0.0041    0.0020 C.ar      1 <0>         0.2734
      7 N1         -1.1970   -0.7204    0.0101 N.pl3     1 <0>        -0.7319
      8 C7         -1.1752   -2.1852    0.0020 C.3       1 <0>         0.1434
      9 C8         -1.0562   -2.6856   -1.4390 C.3       1 <0>        -0.1361
     10 C9         -1.0334   -4.2154   -1.4474 C.3       1 <0>        -0.0988
     11 C10        -2.3270   -4.7481   -0.8277 C.3       1 <0>        -0.1104
     12 C11        -2.4460   -4.2477    0.6132 C.3       1 <0>        -0.1067
     13 C12        -2.4687   -2.7179    0.6217 C.3       1 <0>        -0.1243
     14 C13        -2.3046   -6.2549   -0.8360 C.2       1 <0>         0.5195
     15 O1         -1.3482   -6.8446   -1.2926 O.2       1 <0>        -0.5389
     16 N2         -3.3473   -6.9471   -0.3361 N.am      1 <0>        -0.8565
     17 S1          3.8900    2.3186   -0.0243 S.o2      1 <0>         2.7037
     18 O2          4.8717    1.4606   -0.5894 O.2       1 <0>        -0.9693
     19 O3          3.5945    3.5988   -0.5657 O.2       1 <0>        -0.9698
     20 N3          4.3264    2.5618    1.5546 N.pl3     1 <0>        -1.2523
     21 H1         -0.9589    1.9127    0.0260 H         1 <0>         0.1308
     22 H2          1.1567    3.1700    0.0080 H         1 <0>         0.1412
     23 H3          3.3440   -0.4918   -0.0333 H         1 <0>         0.1411
     24 H4          1.2342   -1.7588   -0.0200 H         1 <0>         0.1328
     25 H5         -2.0441   -0.2480    0.0210 H         1 <0>         0.4036
     26 H6         -0.3223   -2.5391    0.5811 H         1 <0>         0.0861
     27 H7         -1.9091   -2.3317   -2.0181 H         1 <0>         0.0690
     28 H8         -0.1347   -2.3060   -1.8804 H         1 <0>         0.0739
     29 H9         -0.9487   -4.5718   -2.4740 H         1 <0>         0.0765
     30 H10        -0.1805   -4.5693   -0.8683 H         1 <0>         0.0738
     31 H11        -3.1799   -4.3942   -1.4069 H         1 <0>         0.1004
     32 H12        -3.3675   -4.6272    1.0547 H         1 <0>         0.0747
     33 H13        -1.5930   -4.6016    1.1923 H         1 <0>         0.0738
     34 H14        -2.5535   -2.3614    1.6482 H         1 <0>         0.0761
     35 H15        -3.3216   -2.3640    0.0425 H         1 <0>         0.0729
     36 H16        -4.1122   -6.4754    0.0291 H         1 <0>         0.4011
     37 H17        -3.3329   -7.9170   -0.3414 H         1 <0>         0.4025
     38 H18         3.7678    2.2202    2.2703 H         1 <0>         0.4158
     39 H19         5.1405    3.0458    1.7638 H         1 <0>         0.4193
@<TRIPOS>BOND
     1    1    6 ar
     2    1    2 ar
     3    1   21 1
     4    2    3 ar
     5    2   22 1
     6    3    4 ar
     7    3   17 1
     8    4    5 ar
     9    4   23 1
    10    5    6 ar
    11    5   24 1
    12    6    7 1
    13    7    8 1
    14    7   25 1
    15    8   13 1
    16    8    9 1
    17    8   26 1
    18    9   10 1
    19    9   27 1
    20    9   28 1
    21   10   11 1
    22   10   29 1
    23   10   30 1
    24   11   12 1
    25   11   14 1
    26   11   31 1
    27   12   13 1
    28   12   32 1
    29   12   33 1
    30   13   34 1
    31   13   35 1
    32   14   15 2
    33   14   16 am
    34   16   36 1
    35   16   37 1
    36   17   18 2
    37   17   19 2
    38   17   20 1
    39   20   38 1
    40   20   39 1
@<TRIPOS>MOLECULE
ZINC44990688
   35    36     0     0     0
SMALL
USER_CHARGES

@<TRIPOS>ATOM
      1 C1         -0.0178    1.4608    0.0101 C.3       1 <0>         0.0847
      2 N1          0.0021   -0.0041    0.0020 N.am      1 <0>        -0.7357
      3 C2          0.5851   -0.6645   -1.0180 C.2       1 <0>         0.5157
      4 O1          1.0933   -0.0461   -1.9292 O.2       1 <0>        -0.5344
      5 C3          0.6055   -2.1713   -1.0263 C.3       1 <0>        -0.1534
      6 C4          1.3217   -2.6648   -2.2851 C.3       1 <0>         0.1435
      7 N2          1.3415   -4.1296   -2.2931 N.pl3     1 <0>        -0.7515
      8 C5          1.9483   -4.8169   -3.3547 C.ar      1 <0>         0.1600
      9 C6          2.5345   -4.1097   -4.3939 C.ar      1 <0>        -0.1545
     10 C7          3.1331   -4.7918   -5.4409 C.ar      1 <0>         0.0835
     11 C8          3.1468   -6.1853   -5.4516 C.ar      1 <0>         0.0729
     12 C9          2.5622   -6.8917   -4.4148 C.ar      1 <0>        -0.1449
     13 C10         1.9672   -6.2106   -3.3624 C.ar      1 <0>         0.1652
     14 N3          1.3795   -6.9250   -2.3087 N.pl3     1 <0>        -0.8784
     15 O2          3.7373   -6.8404   -6.4883 O.3       1 <0>        -0.3027
     16 C11         3.6635   -6.2128   -7.7710 C.3       1 <0>         0.0521
     17 C12         4.0212   -4.7540   -7.6423 C.2       1 <0>         0.4898
     18 O3          4.5661   -4.1772   -8.5598 O.2       1 <0>        -0.5171
     19 N4          3.7327   -4.0918   -6.5008 N.am      1 <0>        -0.6560
     20 H1          1.0048    1.8381    0.0023 H         1 <0>         0.0616
     21 H2         -0.5450    1.8219   -0.8730 H         1 <0>         0.0615
     22 H3         -0.5280    1.8123    0.9069 H         1 <0>         0.0774
     23 H4         -0.4044   -0.4986    0.7308 H         1 <0>         0.4034
     24 H5          1.1327   -2.5324   -0.1432 H         1 <0>         0.1012
     25 H6         -0.4171   -2.5486   -1.0185 H         1 <0>         0.1011
     26 H7          0.7945   -2.3037   -3.1681 H         1 <0>         0.0686
     27 H8          2.3442   -2.2875   -2.2928 H         1 <0>         0.0687
     28 H9          0.9351   -4.6242   -1.5644 H         1 <0>         0.3941
     29 H10         2.5241   -3.0298   -4.3872 H         1 <0>         0.1347
     30 H11         2.5729   -7.9716   -4.4227 H         1 <0>         0.1389
     31 H12         0.9600   -6.4493   -1.5748 H         1 <0>         0.3926
     32 H13         1.3925   -7.8949   -2.3137 H         1 <0>         0.4019
     33 H14         4.3610   -6.6986   -8.4533 H         1 <0>         0.1437
     34 H15         2.6503   -6.3048   -8.1623 H         1 <0>         0.0979
     35 H16         3.9363   -3.1474   -6.4145 H         1 <0>         0.4144
@<TRIPOS>BOND
     1    1    2 1
     2    1   20 1
     3    1   21 1
     4    1   22 1
     5    2    3 am
     6    2   23 1
     7    3    4 2
     8    3    5 1
     9    5    6 1
    10    5   24 1
    11    5   25 1
    12    6    7 1
    13    6   26 1
    14    6   27 1
    15    7    8 1
    16    7   28 1
    17    8   13 ar
    18    8    9 ar
    19    9   10 ar
    20    9   29 1
    21   10   19 1
    22   10   11 ar
    23   11   12 ar
    24   11   15 1
    25   12   13 ar
    26   12   30 1
    27   13   14 1
    28   14   31 1
    29   14   32 1
    30   15   16 1
    31   16   17 1
    32   16   33 1
    33   16   34 1
    34   17   18 2
    35   17   19 am
    36   19   35 1
@<TRIPOS>MOLECULE
ZINC53103344
   41    41     0     0     0
SMALL
USER_CHARGES

@<TRIPOS>ATOM
      1 C1         -0.7525    1.6208    0.1667 C.3       1 <0>        -0.1488
      2 C2         -0.5238    0.1108    0.0745 C.3       1 <0>        -0.0935
      3 C3         -1.8610   -0.6176    0.2243 C.3       1 <0>        -0.1093
      4 C4         -1.6323   -2.1276    0.1321 C.3       1 <0>        -0.1315
      5 C5         -0.6833   -2.5687    1.2482 C.3       1 <0>         0.1876
      6 C6          0.6538   -1.8403    1.0984 C.3       1 <0>        -0.1201
      7 C7          0.4251   -0.3303    1.1906 C.3       1 <0>        -0.1162
      8 C8         -0.4547   -4.0787    1.1561 C.3       1 <0>         0.0618
      9 O1          0.3290   -4.5107    2.2702 O.3       1 <0>        -0.5679
     10 N1         -1.2740   -2.2428    2.5487 N.am      1 <0>        -0.7017
     11 C9         -2.4714   -2.7569    2.8928 C.2       1 <0>         0.5197
     12 O2         -3.0161   -3.5628    2.1685 O.2       1 <0>        -0.5371
     13 C10        -3.1333   -2.3303    4.1777 C.3       1 <0>         0.1437
     14 H1         -3.3046   -1.2540    4.1583 H         1 <0>         0.1140
     15 C11        -2.2270   -2.6812    5.3593 C.3       1 <0>        -0.1599
     16 N2         -4.4145   -3.0261    4.3214 N.am      1 <0>        -0.7285
     17 C12        -5.3960   -2.4834    5.0688 C.2       1 <0>         0.7097
     18 O3         -5.2182   -1.4163    5.6238 O.2       1 <0>        -0.5947
     19 N3         -6.5746   -3.1235    5.2010 N.am      1 <0>        -0.8649
     20 H2          0.2001    2.1398    0.0599 H         1 <0>         0.0551
     21 H3         -1.4286    1.9351   -0.6285 H         1 <0>         0.0546
     22 H4         -1.1920    1.8634    1.1342 H         1 <0>         0.0543
     23 H5         -0.0844   -0.1317   -0.8931 H         1 <0>         0.0707
     24 H6         -2.3004   -0.3750    1.1918 H         1 <0>         0.0616
     25 H7         -2.5370   -0.3033   -0.5709 H         1 <0>         0.0643
     26 H8         -2.5849   -2.6465    0.2388 H         1 <0>         0.0851
     27 H9         -1.1928   -2.3701   -0.8354 H         1 <0>         0.0728
     28 H10         1.3298   -2.1546    1.8936 H         1 <0>         0.0786
     29 H11         1.0932   -2.0829    0.1309 H         1 <0>         0.0781
     30 H12         1.3777    0.1886    1.0839 H         1 <0>         0.0680
     31 H13        -0.0144   -0.0878    2.1582 H         1 <0>         0.0619
     32 H14        -1.4156   -4.5931    1.1666 H         1 <0>         0.0697
     33 H15         0.0714   -4.3107    0.2300 H         1 <0>         0.0492
     34 H16         0.5135   -5.4599    2.2769 H         1 <0>         0.3788
     35 H17        -0.8033   -1.6570    3.1620 H         1 <0>         0.4026
     36 H18        -2.0557   -3.7575    5.3788 H         1 <0>         0.0643
     37 H19        -1.2738   -2.1635    5.2524 H         1 <0>         0.0710
     38 H20        -2.7058   -2.3727    6.2887 H         1 <0>         0.0752
     39 H21        -4.5564   -3.8774    3.8787 H         1 <0>         0.4061
     40 H22        -6.7165   -3.9749    4.7583 H         1 <0>         0.3985
     41 H23        -7.2810   -2.7329    5.7389 H         1 <0>         0.4168
@<TRIPOS>BOND
     1    1    2 1
     2    1   20 1
     3    1   21 1
     4    1   22 1
     5    2    7 1
     6    2    3 1
     7    2   23 1
     8    3    4 1
     9    3   24 1
    10    3   25 1
    11    4    5 1
    12    4   26 1
    13    4   27 1
    14    5    6 1
    15    5    8 1
    16    5   10 1
    17    6    7 1
    18    6   28 1
    19    6   29 1
    20    7   30 1
    21    7   31 1
    22    8    9 1
    23    8   32 1
    24    8   33 1
    25    9   34 1
    26   10   11 am
    27   10   35 1
    28   11   12 2
    29   11   13 1
    30   13   14 1
    31   13   15 1
    32   13   16 1
    33   15   36 1
    34   15   37 1
    35   15   38 1
    36   16   17 am
    37   16   39 1
    38   17   18 2
    39   17   19 am
    40   19   40 1
    41   19   41 1
@<TRIPOS>MOLECULE
ZINC03869947
   29    29     0     0     0
SMALL
USER_CHARGES
[3-amino-4,5-dihydroxy-6-(hydroxymethyl)tetrahydropyran-2-yl]oxyphosphonic acid
@<TRIPOS>ATOM
      1 C1         -1.6783    3.5233   -4.7960 C.3       1 <0>         0.0840
      2 C2         -0.8946    3.0435   -3.5727 C.3       1 <0>         0.0560
      3 H1          0.1333    3.4006   -3.6363 H         1 <0>         0.1024
      4 C3         -1.5477    3.5914   -2.3010 C.3       1 <0>         0.0546
      5 H2         -1.5040    4.6805   -2.3093 H         1 <0>         0.0811
      6 C4         -0.7939    3.0581   -1.0788 C.3       1 <0>         0.1053
      7 H3         -1.2874    3.3990   -0.1687 H         1 <0>         0.0801
      8 C5         -0.7955    1.5269   -1.1198 C.3       1 <0>         0.0109
      9 H4         -1.8202    1.1617   -1.0510 H         1 <0>         0.1579
     10 C6         -0.1715    1.0588   -2.4371 C.3       1 <0>         0.2970
     11 H5         -0.2089   -0.0293   -2.4906 H         1 <0>         0.1071
     12 O1         -0.9013    1.6151   -3.5325 O.3       1 <0>        -0.3402
     13 O2          1.1885    1.4928   -2.5010 O.3       1 <0>        -0.7362
     14 P1          2.3318    0.6809   -3.2919 P.3       1 <0>         2.1014
     15 O3          1.9090    0.4740   -4.6950 O.2       1 <0>        -1.1374
     16 O4          0.5529    3.5355   -1.0999 O.3       1 <0>        -0.5185
     17 O5         -2.9115    3.1686   -2.2429 O.3       1 <0>        -0.5599
     18 O6         -1.0037    3.1098   -5.9860 O.3       1 <0>        -0.5377
     19 H6         -2.6796    3.0929   -4.7778 H         1 <0>         0.0483
     20 H7         -1.7498    4.6108   -4.7782 H         1 <0>         0.0540
     21 H8          0.0021   -0.0041    0.0020 H         1 <0>         0.4402
     22 H9          0.9253    1.3792    0.0006 H         1 <0>         0.4533
     23 H10         0.6290    4.4992   -1.0760 H         1 <0>         0.3893
     24 H11        -3.4491    3.4713   -2.9874 H         1 <0>         0.3877
     25 H12        -1.4454    3.3801   -6.8027 H         1 <0>         0.3740
     26 O7          3.7044    1.5219   -3.2635 O.3       1 <0>        -1.1598
     27 O8          2.5626   -0.7470   -2.5849 O.3       1 <0>        -1.1905
     28 N1         -0.0252    1.0139    0.0269 N.4       1 <0>        -0.6288
     29 H13        -0.4761    1.3157    0.8986 H         1 <0>         0.4245
@<TRIPOS>BOND
     1    1    2 1
     2    1   18 1
     3    1   19 1
     4    1   20 1
     5    2    3 1
     6    2   12 1
     7    2    4 1
     8    4    5 1
     9    4    6 1
    10    4   17 1
    11    6    7 1
    12    6    8 1
    13    6   16 1
    14    8    9 1
    15    8   10 1
    16    8   28 1
    17   10   11 1
    18   10   12 1
    19   10   13 1
    20   13   14 1
    21   14   15 2
    22   14   26 1
    23   14   27 1
    24   16   23 1
    25   17   24 1
    26   18   25 1
    27   21   28 1
    28   22   28 1
    29   28   29 1
@<TRIPOS>MOLECULE
ZINC35270861
   49    50     0     0     0
SMALL
USER_CHARGES

@<TRIPOS>ATOM
      1 C1          0.7368    0.6563   -0.7907 C.3       1 <0>        -0.1508
      2 C2          0.4784   -0.8120   -0.4467 C.3       1 <0>        -0.1217
      3 C3         -1.0278   -1.0807   -0.4567 C.3       1 <0>        -0.1347
      4 C4         -1.2810   -2.5731   -0.2342 C.3       1 <0>         0.1250
      5 H1         -0.8150   -2.8854    0.7004 H         1 <0>         0.1507
      6 C5         -2.7651   -2.8259   -0.1646 C.ar      1 <0>        -0.1159
      7 C6         -3.3618   -3.1101    1.0487 C.ar      1 <0>        -0.0896
      8 C7         -4.7231   -3.3425    1.1132 C.ar      1 <0>        -0.1184
      9 C8         -5.4909   -3.2908   -0.0358 C.ar      1 <0>        -0.1016
     10 C9         -4.8992   -3.0066   -1.2510 C.ar      1 <0>        -0.1374
     11 C10        -3.5340   -2.7677   -1.3176 C.ar      1 <0>         0.1097
     12 O1         -2.9503   -2.4824   -2.5113 O.3       1 <0>        -0.4957
     13 C11        -2.5281   -3.1673    2.3028 C.3       1 <0>         0.2167
     14 C12        -3.4266   -3.0016    3.5395 C.3       1 <0>        -0.2137
     15 C13        -3.6153   -4.4010    4.0950 C.2       1 <0>         0.3819
     16 O2         -4.5635   -4.8259    4.7103 O.2       1 <0>        -0.4350
     17 C14        -2.3546   -5.1499    3.7090 C.3       1 <0>        -0.1510
     18 C15        -1.8653   -4.5223    2.4221 C.2       1 <0>        -0.1318
     19 C16        -1.0246   -5.0536    1.5694 C.2       1 <0>        -0.1252
     20 C17        -0.4479   -6.4208    1.8323 C.3       1 <0>         0.1562
     21 H2         -0.8434   -6.8075    2.7715 H         1 <0>         0.1015
     22 C18        -0.8314   -7.3642    0.6905 C.3       1 <0>        -0.2120
     23 C19        -0.3604   -8.7592    1.0117 C.2       1 <0>         0.4926
     24 O3          0.2275   -8.9785    2.0571 O.co2     1 <0>        -0.6819
     25 O4         -0.5673   -9.6685    0.2263 O.co2     1 <0>        -0.7095
     26 O5          0.9757   -6.3291    1.9167 O.3       1 <0>        -0.5341
     27 O6         -1.5363   -2.1388    2.2770 O.3       1 <0>        -0.5341
     28 O7         -0.7213   -3.3179   -1.3177 O.3       1 <0>        -0.5550
     29 H3          1.8098    0.8477   -0.7836 H         1 <0>         0.0527
     30 H4          0.3355    0.8736   -1.7806 H         1 <0>         0.0504
     31 H5          0.2491    1.2936   -0.0530 H         1 <0>         0.0503
     32 H6          0.9661   -1.4493   -1.1843 H         1 <0>         0.0684
     33 H7          0.8797   -1.0293    0.5432 H         1 <0>         0.0654
     34 H8         -1.5042   -0.5087    0.3395 H         1 <0>         0.0640
     35 H9         -1.4439   -0.7810   -1.4185 H         1 <0>         0.0676
     36 H10        -5.1876   -3.5653    2.0624 H         1 <0>         0.1289
     37 H11        -6.5541   -3.4731    0.0171 H         1 <0>         0.1298
     38 H12        -5.4993   -2.9664   -2.1481 H         1 <0>         0.1303
     39 H13        -2.6408   -3.2611   -2.9939 H         1 <0>         0.3916
     40 H14        -2.9382   -2.3655    4.2778 H         1 <0>         0.1219
     41 H15        -4.3886   -2.5770    3.2524 H         1 <0>         0.1030
     42 H16        -1.6008   -5.0411    4.4888 H         1 <0>         0.1218
     43 H17        -2.5795   -6.2044    3.5494 H         1 <0>         0.1060
     44 H18        -0.7447   -4.5117    0.6781 H         1 <0>         0.1379
     45 H19        -1.9145   -7.3655    0.5685 H         1 <0>         0.0621
     46 H20        -0.3621   -7.0261   -0.2334 H         1 <0>         0.0626
     47 H21         1.3963   -5.9915    1.1141 H         1 <0>         0.3605
     48 H22        -1.8985   -1.2447    2.2107 H         1 <0>         0.3753
     49 H23        -1.0902   -3.0917   -2.1825 H         1 <0>         0.3645
@<TRIPOS>BOND
     1    1    2 1
     2    1   29 1
     3    1   30 1
     4    1   31 1
     5    2    3 1
     6    2   32 1
     7    2   33 1
     8    3    4 1
     9    3   34 1
    10    3   35 1
    11    4    5 1
    12    4    6 1
    13    4   28 1
    14    6   11 ar
    15    6    7 ar
    16    7    8 ar
    17    7   13 1
    18    8    9 ar
    19    8   36 1
    20    9   10 ar
    21    9   37 1
    22   10   11 ar
    23   10   38 1
    24   11   12 1
    25   12   39 1
    26   13   18 1
    27   13   14 1
    28   13   27 1
    29   14   15 1
    30   14   40 1
    31   14   41 1
    32   15   16 2
    33   15   17 1
    34   17   18 1
    35   17   42 1
    36   17   43 1
    37   18   19 2
    38   19   20 1
    39   19   44 1
    40   20   21 1
    41   20   22 1
    42   20   26 1
    43   22   23 1
    44   22   45 1
    45   22   46 1
    46   23   24 2
    47   23   25 1
    48   26   47 1
    49   27   48 1
    50   28   49 1
@<TRIPOS>MOLECULE
ZINC40378498
   31    32     0     0     0
SMALL
USER_CHARGES

@<TRIPOS>ATOM
      1 C1         -0.0125    1.3734   -0.1809 C.ar      1 <0>        -0.0519
      2 C2          1.1742    2.0815   -0.1831 C.ar      1 <0>        -0.2167
      3 C3          2.3823    1.4160   -0.0184 C.ar      1 <0>         0.1663
      4 C4          2.3969    0.0386    0.1485 C.ar      1 <0>        -0.2025
      5 C5          1.2037   -0.6698    0.1503 C.ar      1 <0>         0.2995
      6 C6         -0.0017    0.0021   -0.0150 C.ar      1 <0>        -0.2659
      7 N1          1.2140   -2.0564    0.3175 N.2       1 <0>        -1.1106
      8 S1         -0.2106   -2.9008    0.3194 S.o2      1 <0>         2.7175
      9 O1         -0.9243   -2.4905    1.4776 O.2       1 <0>        -1.0565
     10 O2         -0.7521   -2.7867   -0.9894 O.2       1 <0>        -1.0571
     11 N2          0.1674   -4.4983    0.5376 N.pl3     1 <0>        -1.2512
     12 N3          3.5834    2.1338   -0.0212 N.am      1 <0>        -0.6543
     13 C7          3.6217    3.3851    0.4781 C.2       1 <0>         0.5011
     14 O3          2.6409    3.8537    1.0161 O.2       1 <0>        -0.4998
     15 C8          4.8833    4.2020    0.3679 C.3       1 <0>         0.1137
     16 H1          5.3251    4.0447   -0.6161 H         1 <0>         0.1220
     17 C9          5.8866    3.7364    1.4556 C.3       1 <0>        -0.0724
     18 S2          6.6720    5.3609    1.8315 S.3       1 <0>        -0.2065
     19 C10         5.3728    6.4196    1.2167 C.2       1 <0>         0.5727
     20 O4          5.2525    7.6174    1.3899 O.2       1 <0>        -0.4670
     21 N4          4.5544    5.6075    0.5220 N.am      1 <0>        -0.7127
     22 H2         -0.9507    1.8938   -0.3047 H         1 <0>         0.1072
     23 H3          1.1623    3.1535   -0.3134 H         1 <0>         0.1136
     24 H4          3.3350   -0.4811    0.2764 H         1 <0>         0.1164
     25 H5         -0.9308   -0.5484   -0.0134 H         1 <0>         0.0987
     26 H6          1.0939   -4.7686    0.6348 H         1 <0>         0.4085
     27 H7         -0.5377   -5.1637    0.5683 H         1 <0>         0.4018
     28 H8          4.3884    1.7309   -0.3825 H         1 <0>         0.4079
     29 H9          5.3720    3.3302    2.3264 H         1 <0>         0.1204
     30 H10         6.6096    3.0261    1.0547 H         1 <0>         0.1423
     31 H11         3.7449    5.9629    0.1229 H         1 <0>         0.4155
@<TRIPOS>BOND
     1    1    6 ar
     2    1    2 ar
     3    1   22 1
     4    2    3 ar
     5    2   23 1
     6    3    4 ar
     7    3   12 1
     8    4    5 ar
     9    4   24 1
    10    5    6 ar
    11    5    7 1
    12    6   25 1
    13    7    8 1
    14    8    9 2
    15    8   10 2
    16    8   11 1
    17   11   26 1
    18   11   27 1
    19   12   13 am
    20   12   28 1
    21   13   14 2
    22   13   15 1
    23   15   16 1
    24   15   21 1
    25   15   17 1
    26   17   18 1
    27   17   29 1
    28   17   30 1
    29   18   19 1
    30   19   20 2
    31   19   21 am
    32   21   31 1
@<TRIPOS>MOLECULE
ZINC49978272
   40    42     0     0     0
SMALL
USER_CHARGES

@<TRIPOS>ATOM
      1 C1          1.1257   -0.5461   -0.6594 C.ar      1 <0>        -0.0514
      2 C2          2.3102    0.1653   -0.6690 C.ar      1 <0>        -0.2465
      3 C3          2.3761    1.4159   -0.0676 C.ar      1 <0>         0.1678
      4 C4          1.2505    1.9509    0.5429 C.ar      1 <0>        -0.1745
      5 C5          0.0624    1.2341    0.5505 C.ar      1 <0>         0.2973
      6 C6          0.0034   -0.0167   -0.0526 C.ar      1 <0>        -0.2741
      7 N1         -1.0727    1.7687    1.1642 N.2       1 <0>        -1.1056
      8 S1         -2.4901    0.9125    1.1727 S.o2      1 <0>         2.7151
      9 O1         -2.9226    0.8296   -0.1784 O.2       1 <0>        -1.0580
     10 O2         -2.2635   -0.2402    1.9722 O.2       1 <0>        -1.0590
     11 N2         -3.6119    1.8306    1.9732 N.pl3     1 <0>        -1.2512
     12 N3          3.5757    2.1348   -0.0771 N.am      1 <0>        -0.6646
     13 C7          3.5553    3.4783   -0.1825 C.2       1 <0>         0.5593
     14 O3          2.4938    4.0714   -0.1924 O.2       1 <0>        -0.5102
     15 C8          4.8208    4.2293   -0.2858 C.ar      1 <0>        -0.2385
     16 C9          4.8114    5.6290   -0.3902 C.ar      1 <0>         0.0252
     17 C10         6.0090    6.2846   -0.4839 C.ar      1 <0>        -0.2437
     18 C11         7.1936    5.5499   -0.4731 C.ar      1 <0>         0.4210
     19 N4          7.1746    4.2278   -0.3739 N.ar      1 <0>        -0.5475
     20 C12         6.0448    3.5587   -0.2754 C.ar      1 <0>         0.1867
     21 N5          8.4071    6.2100   -0.5677 N.pl3     1 <0>        -0.6897
     22 C13         8.4472    7.6744   -0.5573 C.3       1 <0>         0.0849
     23 C14         9.4396    8.3606   -1.4980 C.3       1 <0>        -0.1935
     24 C15         9.7015    8.3427    0.0093 C.3       1 <0>        -0.1904
     25 H1          1.0761   -1.5163   -1.1312 H         1 <0>         0.1059
     26 H2          3.1859   -0.2515   -1.1443 H         1 <0>         0.1044
     27 H3          1.2993    2.9227    1.0114 H         1 <0>         0.1298
     28 H4         -0.9209   -0.5753   -0.0469 H         1 <0>         0.0968
     29 H5         -3.3639    2.6984    2.3289 H         1 <0>         0.4088
     30 H6         -4.5171    1.5008    2.0865 H         1 <0>         0.4008
     31 H7          4.4223    1.6666   -0.0077 H         1 <0>         0.4003
     32 H8          3.8803    6.1761   -0.3968 H         1 <0>         0.1481
     33 H9          6.0361    7.3612   -0.5658 H         1 <0>         0.1376
     34 H10         6.0652    2.4822   -0.1907 H         1 <0>         0.1604
     35 H11         9.2307    5.7028   -0.6409 H         1 <0>         0.4070
     36 H12         7.4916    8.1696   -0.3850 H         1 <0>         0.1363
     37 H13        10.0627    7.7226   -2.1247 H         1 <0>         0.0979
     38 H14         9.1370    9.3076   -1.9451 H         1 <0>         0.1041
     39 H15         9.5711    9.2779    0.5539 H         1 <0>         0.1049
     40 H16        10.4969    7.6929    0.3742 H         1 <0>         0.0980
@<TRIPOS>BOND
     1    1    6 ar
     2    1    2 ar
     3    1   25 1
     4    2    3 ar
     5    2   26 1
     6    3    4 ar
     7    3   12 1
     8    4    5 ar
     9    4   27 1
    10    5    6 ar
    11    5    7 1
    12    6   28 1
    13    7    8 1
    14    8    9 2
    15    8   10 2
    16    8   11 1
    17   11   29 1
    18   11   30 1
    19   12   13 am
    20   12   31 1
    21   13   14 2
    22   13   15 1
    23   15   20 ar
    24   15   16 ar
    25   16   17 ar
    26   16   32 1
    27   17   18 ar
    28   17   33 1
    29   18   19 ar
    30   18   21 1
    31   19   20 ar
    32   20   34 1
    33   21   22 1
    34   21   35 1
    35   22   24 1
    36   22   23 1
    37   22   36 1
    38   23   24 1
    39   23   37 1
    40   23   38 1
    41   24   39 1
    42   24   40 1
@<TRIPOS>MOLECULE
ZINC57424526
   42    43     0     0     0
SMALL
USER_CHARGES

@<TRIPOS>ATOM
      1 C1          1.9709   -1.7201   -2.8307 C.3       1 <0>        -0.1427
      2 C2          0.8269   -1.4084   -1.8638 C.3       1 <0>        -0.6035
      3 S1         -0.4154   -2.7273   -1.9519 S.o2      1 <0>         2.5263
      4 O1         -1.0610   -2.7079   -3.2176 O.2       1 <0>        -1.0294
      5 O2          0.1166   -3.9366   -1.4285 O.2       1 <0>        -1.0271
      6 N1         -1.5886   -2.2796   -0.8723 N.2       1 <0>        -1.1009
      7 C3         -2.7147   -3.0892   -0.6871 C.ar      1 <0>         0.2779
      8 C4         -2.8458   -4.2711   -1.4045 C.ar      1 <0>        -0.2422
      9 C5         -3.9568   -5.0701   -1.2213 C.ar      1 <0>        -0.0555
     10 C6         -4.9432   -4.6918   -0.3203 C.ar      1 <0>         0.0294
     11 C7         -4.8123   -3.5102    0.3970 C.ar      1 <0>        -0.0934
     12 C8         -3.6986   -2.7138    0.2183 C.ar      1 <0>        -0.1725
     13 N2         -6.0716   -5.5027   -0.1351 N.am      1 <0>        -0.6623
     14 C9         -5.9641   -6.8418   -0.2430 C.2       1 <0>         0.6929
     15 O3         -4.8731   -7.3529   -0.4072 O.2       1 <0>        -0.5514
     16 N3         -7.0659   -7.6145   -0.1687 N.am      1 <0>        -0.6887
     17 C10        -6.9449   -9.0034   -0.1717 C.ar      1 <0>         0.2086
     18 C11        -5.8426   -9.6054    0.4271 C.ar      1 <0>        -0.1311
     19 C12        -5.7200  -10.9765    0.4259 C.ar      1 <0>        -0.0329
     20 C13        -6.7043  -11.7640   -0.1778 C.ar      1 <0>        -0.1708
     21 C14        -7.8101  -11.1561   -0.7784 C.ar      1 <0>        -0.0632
     22 C15        -7.9294   -9.7847   -0.7686 C.ar      1 <0>        -0.1635
     23 C16        -6.5759  -13.2342   -0.1814 C.2       1 <0>         0.5670
     24 O4         -5.6130  -13.7617    0.3412 O.2       1 <0>        -0.5430
     25 N4         -7.5259  -13.9922   -0.7640 N.am      1 <0>        -0.8546
     26 H1          2.7174   -0.9276   -2.7778 H         1 <0>         0.0674
     27 H2          2.4296   -2.6701   -2.5568 H         1 <0>         0.0645
     28 H3          1.5808   -1.7845   -3.8465 H         1 <0>         0.0642
     29 H4          1.2170   -1.3440   -0.8481 H         1 <0>         0.1187
     30 H5          0.3682   -0.4583   -2.1378 H         1 <0>         0.1184
     31 H6         -2.0789   -4.5651   -2.1058 H         1 <0>         0.1038
     32 H7         -4.0589   -5.9893   -1.7791 H         1 <0>         0.1154
     33 H8         -5.5798   -3.2160    1.0975 H         1 <0>         0.1069
     34 H9         -3.5947   -1.7969    0.7795 H         1 <0>         0.1156
     35 H10        -6.9297   -5.1000    0.0706 H         1 <0>         0.3975
     36 H11        -7.9431   -7.2042   -0.1132 H         1 <0>         0.4071
     37 H12        -5.0822   -8.9963    0.8931 H         1 <0>         0.1471
     38 H13        -4.8640  -11.4432    0.8906 H         1 <0>         0.1388
     39 H14        -8.5723  -11.7617   -1.2460 H         1 <0>         0.1273
     40 H15        -8.7859   -9.3145   -1.2287 H         1 <0>         0.1314
     41 H16        -8.2940  -13.5714   -1.1808 H         1 <0>         0.3997
     42 H17        -7.4415  -14.9585   -0.7663 H         1 <0>         0.4031
@<TRIPOS>BOND
     1    1    2 1
     2    1   26 1
     3    1   27 1
     4    1   28 1
     5    2    3 1
     6    2   29 1
     7    2   30 1
     8    3    4 2
     9    3    5 2
    10    3    6 1
    11    6    7 1
    12    7   12 ar
    13    7    8 ar
    14    8    9 ar
    15    8   31 1
    16    9   10 ar
    17    9   32 1
    18   10   11 ar
    19   10   13 1
    20   11   12 ar
    21   11   33 1
    22   12   34 1
    23   13   14 am
    24   13   35 1
    25   14   15 2
    26   14   16 am
    27   16   17 1
    28   16   36 1
    29   17   22 ar
    30   17   18 ar
    31   18   19 ar
    32   18   37 1
    33   19   20 ar
    34   19   38 1
    35   20   21 ar
    36   20   23 1
    37   21   22 ar
    38   21   39 1
    39   22   40 1
    40   23   24 2
    41   23   25 am
    42   25   41 1
    43   25   42 1
@<TRIPOS>MOLECULE
ZINC62833500
   38    38     0     0     0
SMALL
USER_CHARGES

@<TRIPOS>ATOM
      1 C1         -0.0187    1.5258    0.0104 C.3       1 <0>        -0.1617
      2 C2          0.0021   -0.0041    0.0020 C.3       1 <0>         0.1581
      3 H1          0.5123   -0.3556   -0.8948 H         1 <0>         0.1098
      4 C3          0.7309   -0.5033    1.2229 C.2       1 <0>         0.4978
      5 O1          0.1589   -1.2125    2.0226 O.2       1 <0>        -0.4504
      6 N1          2.0187   -0.1613    1.4257 N.am      1 <0>        -0.6932
      7 C4          2.6706   -0.6078    2.5176 C.2       1 <0>         0.6899
      8 O2          2.0971   -1.3188    3.3194 O.2       1 <0>        -0.5305
      9 N2          3.9584   -0.2658    2.7205 N.am      1 <0>        -0.7455
     10 C5          4.6669   -0.7511    3.9073 C.3       1 <0>         0.1039
     11 N3         -1.3723   -0.5112    0.0124 N.pl3     1 <0>        -0.6386
     12 C6         -2.2686   -0.1755    1.1216 C.3       1 <0>         0.1185
     13 C7         -1.8266   -1.3119   -1.0316 C.ar      1 <0>         0.0667
     14 C8         -1.6914   -2.6937   -0.9558 C.ar      1 <0>        -0.0942
     15 C9         -2.1391   -3.4901   -1.9856 C.ar      1 <0>        -0.1333
     16 C10        -2.7316   -2.9103   -3.1127 C.ar      1 <0>        -0.0861
     17 C11        -2.8687   -1.5193   -3.1908 C.ar      1 <0>        -0.1557
     18 C12        -2.4233   -0.7256   -2.1520 C.ar      1 <0>         0.1941
     19 N4         -2.5637    0.6659   -2.2235 N.pl3     1 <0>        -0.8822
     20 C13        -3.2094   -3.7610   -4.2141 C.2       1 <0>         0.5177
     21 O3         -3.0887   -4.9766   -4.1448 O.co2     1 <0>        -0.6868
     22 O4         -3.7274   -3.2528   -5.1992 O.co2     1 <0>        -0.6895
     23 H2          1.0039    1.9031    0.0027 H         1 <0>         0.0641
     24 H3         -0.5459    1.8868   -0.8726 H         1 <0>         0.0740
     25 H4         -0.5289    1.8773    0.9072 H         1 <0>         0.0637
     26 H5          2.4764    0.4061    0.7859 H         1 <0>         0.4069
     27 H6          4.4160    0.3017    2.0806 H         1 <0>         0.3990
     28 H7          4.1567   -0.3996    4.8041 H         1 <0>         0.0600
     29 H8          4.6817   -1.8410    3.9013 H         1 <0>         0.0609
     30 H9          5.6895   -0.3738    3.8996 H         1 <0>         0.0781
     31 H10        -2.8038    0.7455    0.8903 H         1 <0>         0.0261
     32 H11        -2.9842   -0.9845    1.2681 H         1 <0>         0.0569
     33 H12        -1.6846   -0.0376    2.0316 H         1 <0>         0.0591
     34 H13        -1.2337   -3.1433   -0.0870 H         1 <0>         0.1132
     35 H14        -2.0325   -4.5631   -1.9236 H         1 <0>         0.1229
     36 H15        -3.3255   -1.0683   -4.0593 H         1 <0>         0.1245
     37 H16        -2.2469    1.2233   -1.4956 H         1 <0>         0.3898
     38 H17        -2.9777    1.0723   -3.0009 H         1 <0>         0.3916
@<TRIPOS>BOND
     1    1    2 1
     2    1   23 1
     3    1   24 1
     4    1   25 1
     5    2    3 1
     6    2    4 1
     7    2   11 1
     8    4    5 2
     9    4    6 am
    10    6    7 am
    11    6   26 1
    12    7    8 2
    13    7    9 am
    14    9   10 1
    15    9   27 1
    16   10   28 1
    17   10   29 1
    18   10   30 1
    19   11   12 1
    20   11   13 1
    21   12   31 1
    22   12   32 1
    23   12   33 1
    24   13   18 ar
    25   13   14 ar
    26   14   15 ar
    27   14   34 1
    28   15   16 ar
    29   15   35 1
    30   16   17 ar
    31   16   20 1
    32   17   18 ar
    33   17   36 1
    34   18   19 1
    35   19   37 1
    36   19   38 1
    37   20   21 2
    38   20   22 1
@<TRIPOS>MOLECULE
ZINC03097991
   52    55     0     0     0
SMALL
USER_CHARGES
3-methyl-8-oxo-7-[2-(2-oxoimidazolidin-1-yl)carbonylamino-2-phenyl-acetyl]amino-5-thia-1-azabicyclo[4.2.0]oct-2-ene-2-carboxylic acid
@<TRIPOS>ATOM
      1 C1         -8.0006    1.7795   -0.3498 C.3       1 <0>        -0.0740
      2 C2         -6.5486    1.7120    0.0478 C.2       1 <0>        -0.1622
      3 C3         -5.6762    1.7575   -0.9477 C.2       1 <0>         0.0865
      4 N1         -4.3001    1.6470   -0.6884 N.am      1 <0>        -0.5536
      5 C4         -3.6193    1.8896    0.6234 C.3       1 <0>         0.1339
      6 H1         -3.4137    2.9273    0.8861 H         1 <0>         0.1349
      7 C5         -2.4490    1.1181    0.0229 C.3       1 <0>         0.1254
      8 H2         -2.3406    0.1088    0.4201 H         1 <0>         0.1570
      9 C6         -3.1973    1.1784   -1.2980 C.2       1 <0>         0.5306
     10 O1         -2.9127    0.9109   -2.4462 O.2       1 <0>        -0.4396
     11 N2         -1.1902    1.8675    0.0202 N.am      1 <0>        -0.6983
     12 C7         -0.0141    1.2093    0.0106 C.2       1 <0>         0.5292
     13 O2          0.0021   -0.0033    0.0041 O.2       1 <0>        -0.5198
     14 C8          1.2807    1.9803    0.0015 C.3       1 <0>         0.1896
     15 H3          1.3211    2.6123   -0.8856 H         1 <0>         0.1323
     16 C9          1.3613    2.8413    1.2357 C.ar      1 <0>        -0.1056
     17 C10         1.7355    2.2839    2.4441 C.ar      1 <0>        -0.0954
     18 C11         1.8136    3.0746    3.5753 C.ar      1 <0>        -0.1185
     19 C12         1.5084    4.4207    3.5001 C.ar      1 <0>        -0.1109
     20 C13         1.1296    4.9771    2.2927 C.ar      1 <0>        -0.1144
     21 C14         1.0556    4.1873    1.1606 C.ar      1 <0>        -0.0993
     22 N3          2.4068    1.0434   -0.0146 N.am      1 <0>        -0.7135
     23 C15         3.5964    1.4281   -0.5179 C.2       1 <0>         0.7330
     24 O3          3.7107    2.5193   -1.0409 O.2       1 <0>        -0.5224
     25 N4          4.6592    0.6029   -0.4412 N.am      1 <0>        -0.5870
     26 C16         4.6321   -0.7763    0.0682 C.3       1 <0>         0.0672
     27 C17         6.0925   -1.2489   -0.0679 C.3       1 <0>         0.0948
     28 N5          6.7874   -0.0859   -0.6396 N.am      1 <0>        -0.7330
     29 C18         5.9069    0.9068   -0.8223 C.2       1 <0>         0.7076
     30 O4          6.2130    1.9870   -1.2881 O.2       1 <0>        -0.5298
     31 S1         -4.6069    0.9764    1.8562 S.3       1 <0>        -0.2423
     32 C19        -6.2806    1.6028    1.5134 C.3       1 <0>        -0.0217
     33 C20        -6.1512    1.9249   -2.3330 C.2       1 <0>         0.4898
     34 O5         -5.3528    1.9670   -3.2481 O.co2     1 <0>        -0.6040
     35 H4         -8.6242    1.7347    0.5431 H         1 <0>         0.0199
     36 H5         -8.1895    2.7139   -0.8783 H         1 <0>         0.0885
     37 H6         -8.2384    0.9389   -1.0016 H         1 <0>         0.0786
     38 H7         -1.2032    2.8374    0.0253 H         1 <0>         0.4105
     39 H8          1.9700    1.2314    2.5037 H         1 <0>         0.1193
     40 H9          2.1099    2.6399    4.5185 H         1 <0>         0.1233
     41 H10         1.5662    5.0378    4.3846 H         1 <0>         0.1233
     42 H11         0.8911    6.0288    2.2340 H         1 <0>         0.1270
     43 H12         0.7593    4.6220    0.2174 H         1 <0>         0.1290
     44 H13         2.2962    0.1461    0.3369 H         1 <0>         0.4093
     45 H14         4.3206   -0.7923    1.1126 H         1 <0>         0.0977
     46 H15         3.9695   -1.3948   -0.5371 H         1 <0>         0.1011
     47 H16         6.5062   -1.4996    0.9089 H         1 <0>         0.0908
     48 H17         6.1567   -2.1043   -0.7404 H         1 <0>         0.0915
     49 H18         7.7325   -0.0454   -0.8542 H         1 <0>         0.4358
     50 H19        -7.0102    0.9257    1.9575 H         1 <0>         0.1189
     51 H20        -6.3900    2.5880    1.9667 H         1 <0>         0.0954
     52 O6         -7.4709    2.0312   -2.5847 O.co2     1 <0>        -0.7264
@<TRIPOS>BOND
     1    1    2 1
     2    1   35 1
     3    1   36 1
     4    1   37 1
     5    2   32 1
     6    2    3 2
     7    3    4 1
     8    3   33 1
     9    4    9 am
    10    4    5 1
    11    5    6 1
    12    5    7 1
    13    5   31 1
    14    7    8 1
    15    7    9 1
    16    7   11 1
    17    9   10 2
    18   11   12 am
    19   11   38 1
    20   12   13 2
    21   12   14 1
    22   14   15 1
    23   14   16 1
    24   14   22 1
    25   16   21 ar
    26   16   17 ar
    27   17   18 ar
    28   17   39 1
    29   18   19 ar
    30   18   40 1
    31   19   20 ar
    32   19   41 1
    33   20   21 ar
    34   20   42 1
    35   21   43 1
    36   22   23 am
    37   22   44 1
    38   23   24 2
    39   23   25 am
    40   25   29 am
    41   25   26 1
    42   26   27 1
    43   26   45 1
    44   26   46 1
    45   27   28 1
    46   27   47 1
    47   27   48 1
    48   28   29 am
    49   28   49 1
    50   29   30 2
    51   31   32 1
    52   32   50 1
    53   32   51 1
    54   33   34 2
    55   33   52 1
@<TRIPOS>MOLECULE
ZINC08740416
   37    39     0     0     0
SMALL
USER_CHARGES
(6R,7R)-7-[[(2Z)-2-(2-aminothiazol-5-yl)-2-methoxyimino-acetyl]amino]-8-oxo-5-thia-1-azabicyclo[4.2.0]oct-2-ene-2-carboxylic acid
@<TRIPOS>ATOM
      1 C1         -1.3630    3.6460    5.8895 C.3       1 <0>         0.0349
      2 O1         -2.2405    3.7108    4.7635 O.3       1 <0>        -0.2206
      3 N1         -1.6952    3.1648    3.5763 N.2       1 <0>        -0.2928
      4 C2         -2.3977    3.1633    2.4758 C.2       1 <0>         0.2094
      5 C3         -3.7562    3.7291    2.4693 C.2       1 <0>        -0.2599
      6 C4         -4.4745    4.2973    3.4931 C.2       1 <0>         0.1466
      7 N2         -5.6822    4.7381    3.2301 N.2       1 <0>        -0.5937
      8 C5         -6.2061    4.6321    2.0201 C.2       1 <0>         0.3287
      9 S1         -4.9311    3.8601    1.1292 S.3       1 <0>         0.1411
     10 N3         -7.4514    5.0342    1.5773 N.pl3     1 <0>        -0.7914
     11 C6         -1.8267    2.5915    1.2327 C.2       1 <0>         0.5856
     12 O2         -2.4805    2.5901    0.2085 O.2       1 <0>        -0.5011
     13 N4         -0.5826    2.0733    1.2387 N.am      1 <0>        -0.6782
     14 C7         -0.0184    1.5084    0.0103 C.3       1 <0>         0.1167
     15 H1         -0.4555    1.9385   -0.8908 H         1 <0>         0.1453
     16 C8          1.5014    1.4992   -0.0042 C.3       1 <0>         0.1367
     17 H2          1.9725    1.7431   -0.9564 H         1 <0>         0.1490
     18 N5          1.3090    0.0477    0.3003 N.am      1 <0>        -0.5646
     19 C9          0.0021   -0.0041    0.0020 C.2       1 <0>         0.5411
     20 O3         -0.8111   -0.8831   -0.1909 O.2       1 <0>        -0.4271
     21 C10         2.2815   -0.8205    0.8340 C.2       1 <0>         0.0992
     22 C11         3.3386   -0.3402    1.4673 C.2       1 <0>        -0.2068
     23 C12         3.7219    1.0874    1.6861 C.3       1 <0>        -0.0255
     24 S2          2.3048    2.2087    1.4726 S.3       1 <0>        -0.2397
     25 C13         2.1197   -2.2780    0.6849 C.2       1 <0>         0.4876
     26 O4          1.1509   -2.7255    0.1038 O.co2     1 <0>        -0.5987
     27 H3         -1.8541    4.0841    6.7585 H         1 <0>         0.1005
     28 H4         -1.1159    2.6051    6.0981 H         1 <0>         0.0568
     29 H5         -0.4498    4.1994    5.6708 H         1 <0>         0.0561
     30 H6         -4.0560    4.3819    4.4851 H         1 <0>         0.1850
     31 H7         -7.7062    4.8928    0.6521 H         1 <0>         0.4216
     32 H8         -8.0710    5.4580    2.1917 H         1 <0>         0.4144
     33 H9         -0.0607    2.0744    2.0563 H         1 <0>         0.4246
     34 H10         4.0131   -1.0759    1.8799 H         1 <0>         0.1455
     35 H11         4.1138    1.1988    2.6971 H         1 <0>         0.1182
     36 H12         4.5004    1.3592    0.9732 H         1 <0>         0.0964
     37 O5          3.0463   -3.1144    1.1931 O.co2     1 <0>        -0.7410
@<TRIPOS>BOND
     1    1    2 1
     2    1   27 1
     3    1   28 1
     4    1   29 1
     5    2    3 1
     6    3    4 2
     7    4    5 1
     8    4   11 1
     9    5    9 1
    10    5    6 2
    11    6    7 1
    12    6   30 1
    13    7    8 2
    14    8    9 1
    15    8   10 1
    16   10   31 1
    17   10   32 1
    18   11   12 2
    19   11   13 am
    20   13   14 1
    21   13   33 1
    22   14   15 1
    23   14   19 1
    24   14   16 1
    25   16   17 1
    26   16   24 1
    27   16   18 1
    28   18   19 am
    29   18   21 1
    30   19   20 2
    31   21   22 2
    32   21   25 1
    33   22   23 1
    34   22   34 1
    35   23   24 1
    36   23   35 1
    37   23   36 1
    38   25   26 2
    39   25   37 1
@<TRIPOS>MOLECULE
ZINC31160240
   60    63     0     0     0
SMALL
USER_CHARGES
3-oxo-3-[[(2S,3S,4R,5S,6S)-3,4,5-trihydroxy-6-[1-methyl-1-[(2S)-7-oxo-2,3-dihydrofuro[3,2-g]chromen-2-yl]ethoxy]tetrahydropyran-2-yl]methoxy]propanoic acid
@<TRIPOS>ATOM
      1 C1          1.6039    2.8432    0.5269 C.3       1 <0>        -0.1847
      2 C2          1.5613    1.3672    0.1263 C.3       1 <0>         0.1148
      3 C3          2.6204    0.5940    0.9145 C.3       1 <0>        -0.1768
      4 C4          0.1765    0.7946    0.4353 C.3       1 <0>         0.0940
      5 H1          0.2088   -0.2796    0.2006 H         1 <0>         0.1012
      6 C5         -0.9238    1.5958   -0.2997 C.3       1 <0>        -0.1017
      7 C6         -2.0538    1.5772    0.7125 C.ar      1 <0>        -0.1799
      8 C7         -3.3810    1.8565    0.5965 C.ar      1 <0>        -0.0027
      9 C8         -4.2140    1.7477    1.7159 C.ar      1 <0>        -0.1903
     10 C9         -5.6454    2.0403    1.6250 C.2       1 <0>         0.0157
     11 C10        -6.3987    1.9130    2.7484 C.2       1 <0>        -0.2592
     12 C11        -5.7932    1.5078    3.9556 C.2       1 <0>         0.5109
     13 O1         -6.4800    1.3962    4.9553 O.2       1 <0>        -0.4662
     14 O2         -4.4799    1.2425    4.0323 O.3       1 <0>        -0.2690
     15 C12        -3.6739    1.3504    2.9535 C.ar      1 <0>         0.1859
     16 C13        -2.3205    1.0747    3.0516 C.ar      1 <0>        -0.1618
     17 C14        -1.5001    1.1891    1.9336 C.ar      1 <0>         0.1735
     18 O3         -0.1550    0.9845    1.8209 O.3       1 <0>        -0.2800
     19 O4          1.8256    1.2456   -1.2728 O.3       1 <0>        -0.3752
     20 C15         3.0483    1.8574   -1.6886 C.3       1 <0>         0.2578
     21 H2          3.8110    1.6216   -0.9319 H         1 <0>         0.1183
     22 C16         3.4150    1.3640   -3.0907 C.3       1 <0>         0.1258
     23 H3          4.4040    1.7324   -3.4008 H         1 <0>         0.0877
     24 C17         2.3228    1.7915   -4.0759 C.3       1 <0>         0.1027
     25 H4          1.3715    1.2786   -3.8709 H         1 <0>         0.0822
     26 C18         2.1657    3.3141   -4.0180 C.3       1 <0>         0.0653
     27 H5          1.3951    3.6662   -4.7196 H         1 <0>         0.0681
     28 C19         1.8472    3.7321   -2.5801 C.3       1 <0>         0.0601
     29 H6          0.9242    3.2543   -2.2198 H         1 <0>         0.0865
     30 O5          2.8869    3.2771   -1.7117 O.3       1 <0>        -0.3597
     31 C20         1.7481    5.2569   -2.5021 C.3       1 <0>         0.0698
     32 O6          1.3317    5.6472   -1.1670 O.3       1 <0>        -0.3605
     33 C21         1.1960    6.9616   -0.9308 C.2       1 <0>         0.4546
     34 O7          1.4179    7.7596   -1.8106 O.2       1 <0>        -0.4613
     35 C22         0.7669    7.4420    0.4316 C.3       1 <0>        -0.1547
     36 C23         0.6916    8.9471    0.4328 C.2       1 <0>         0.4619
     37 O8          0.9589    9.5662   -0.5698 O.co2     1 <0>        -0.5992
     38 O9          0.3276    9.6000    1.5476 O.co2     1 <0>        -0.7637
     39 O10         3.3812    3.9371   -4.4383 O.3       1 <0>        -0.5793
     40 O11         2.6904    1.3988   -5.3998 O.3       1 <0>        -0.5900
     41 O12         3.5202   -0.0611   -3.0831 O.3       1 <0>        -0.5856
     42 H7          0.8424    3.3990   -0.0398 H         1 <0>         0.0748
     43 H8          2.5995    3.2548    0.3047 H         1 <0>         0.0854
     44 H9          1.4004    2.9368    1.6039 H         1 <0>         0.0681
     45 H10         2.5897   -0.4672    0.6264 H         1 <0>         0.0670
     46 H11         2.4169    0.6876    1.9915 H         1 <0>         0.0780
     47 H12         3.6160    1.0056    0.6923 H         1 <0>         0.0643
     48 H13        -0.5558    2.6093   -0.5174 H         1 <0>         0.1084
     49 H14        -1.1796    1.0885   -1.2416 H         1 <0>         0.0990
     50 H15        -3.7898    2.1606   -0.3558 H         1 <0>         0.1439
     51 H16        -6.0903    2.3496    0.6907 H         1 <0>         0.1543
     52 H17        -7.4580    2.1210    2.7169 H         1 <0>         0.1640
     53 H18        -1.9004    0.7698    3.9986 H         1 <0>         0.1507
     54 H19         2.7301    5.7000   -2.7241 H         1 <0>         0.0781
     55 H20         1.0103    5.6144   -3.2355 H         1 <0>         0.0816
     56 H21        -0.2221    7.0252    0.6726 H         1 <0>         0.1036
     57 H22         1.4977    7.1108    1.1841 H         1 <0>         0.1054
     58 H23         3.4572    5.0342   -4.4622 H         1 <0>         0.4109
     59 H24         2.0234    1.6232   -6.2452 H         1 <0>         0.4107
     60 H25         3.7779   -0.5985   -4.0076 H         1 <0>         0.4167
@<TRIPOS>BOND
     1    1    2 1
     2    1   42 1
     3    1   43 1
     4    1   44 1
     5    2    3 1
     6    2    4 1
     7    2   19 1
     8    3   45 1
     9    3   46 1
    10    3   47 1
    11    4    5 1
    12    4   18 1
    13    4    6 1
    14    6    7 1
    15    6   48 1
    16    6   49 1
    17    7   17 ar
    18    7    8 ar
    19    8    9 ar
    20    8   50 1
    21    9   15 ar
    22    9   10 1
    23   10   11 2
    24   10   51 1
    25   11   12 1
    26   11   52 1
    27   12   13 2
    28   12   14 1
    29   14   15 1
    30   15   16 ar
    31   16   17 ar
    32   16   53 1
    33   17   18 1
    34   19   20 1
    35   20   21 1
    36   20   30 1
    37   20   22 1
    38   22   23 1
    39   22   24 1
    40   22   41 1
    41   24   25 1
    42   24   26 1
    43   24   40 1
    44   26   27 1
    45   26   28 1
    46   26   39 1
    47   28   29 1
    48   28   30 1
    49   28   31 1
    50   31   32 1
    51   31   54 1
    52   31   55 1
    53   32   33 1
    54   33   34 2
    55   33   35 1
    56   35   36 1
    57   35   56 1
    58   35   57 1
    59   36   37 2
    60   36   38 1
    61   39   58 1
    62   40   59 1
    63   41   60 1
@<TRIPOS>MOLECULE
ZINC38815404
   38    39     0     0     0
SMALL
USER_CHARGES

@<TRIPOS>ATOM
      1 C1         -0.0187    1.5258    0.0104 C.3       1 <0>        -0.1431
      2 C2          0.0021   -0.0041    0.0020 C.3       1 <0>         0.0683
      3 H1          0.5123   -0.3556   -0.8948 H         1 <0>         0.0951
      4 C3          0.7309   -0.5033    1.2229 C.2       1 <0>         0.5320
      5 O1          0.1586   -1.2129    2.0230 O.2       1 <0>        -0.4928
      6 N1          2.0187   -0.1613    1.4257 N.am      1 <0>        -0.5808
      7 N2          2.6963   -0.6254    2.5608 N.2       1 <0>        -0.2465
      8 C4          3.9371   -0.2959    2.7562 C.2       1 <0>         0.1414
      9 C5          4.6494   -0.7838    3.9495 C.ar      1 <0>        -0.0884
     10 C6          3.9910   -1.6070    4.8693 C.ar      1 <0>        -0.0862
     11 C7          4.6513   -2.0595    5.9757 C.ar      1 <0>        -0.0962
     12 C8          5.9867   -1.7001    6.1891 C.ar      1 <0>        -0.1044
     13 C9          6.6453   -0.8771    5.2687 C.ar      1 <0>        -0.0958
     14 C10         5.9862   -0.4288    4.1599 C.ar      1 <0>        -0.0994
     15 C11         6.6991   -2.1877    7.3828 C.2       1 <0>         0.5154
     16 O2          6.1232   -2.9068    8.1876 O.co2     1 <0>        -0.6826
     17 O3          7.8666   -1.8735    7.5693 O.co2     1 <0>        -0.6845
     18 N3         -1.3761   -0.5125    0.0124 N.3       1 <0>        -0.6212
     19 C12        -1.9244   -0.5753   -1.3489 C.3       1 <0>         0.1004
     20 H2         -1.2784    0.0162   -1.9978 H         1 <0>         0.1682
     21 C13        -3.2963    0.0737   -1.3335 C.2       1 <0>         0.5301
     22 O4         -3.4555    1.2221   -0.9793 O.2       1 <0>        -0.4350
     23 N4         -4.3334   -0.6989   -1.7372 N.am      1 <0>        -0.6846
     24 C14        -4.1131   -1.9661   -2.1221 C.2       1 <0>         0.6050
     25 O5         -5.0674   -2.6277   -2.4773 O.2       1 <0>        -0.4442
     26 N5         -2.9085   -2.5444   -2.1380 N.2       1 <0>        -0.1585
     27 N6         -1.8650   -1.9755   -1.8003 N.2       1 <0>        -0.0469
     28 H3          1.0039    1.9031    0.0027 H         1 <0>         0.0702
     29 H4         -0.5459    1.8868   -0.8726 H         1 <0>         0.0734
     30 H5         -0.5289    1.8773    0.9072 H         1 <0>         0.0776
     31 H6          2.4764    0.4061    0.7859 H         1 <0>         0.3827
     32 H7          4.4466    0.3359    2.0438 H         1 <0>         0.1167
     33 H8          2.9603   -1.8843    4.7046 H         1 <0>         0.1272
     34 H9          4.1427   -2.6943    6.6861 H         1 <0>         0.1309
     35 H10         7.6760   -0.5997    5.4332 H         1 <0>         0.1318
     36 H11         6.4957    0.2030    3.4475 H         1 <0>         0.1201
     37 H12        -1.4257   -1.4134    0.4641 H         1 <0>         0.3772
     38 H13        -5.2333   -0.3371   -1.7484 H         1 <0>         0.4274
@<TRIPOS>BOND
     1    1    2 1
     2    1   28 1
     3    1   29 1
     4    1   30 1
     5    2    3 1
     6    2    4 1
     7    2   18 1
     8    4    5 2
     9    4    6 am
    10    6    7 1
    11    6   31 1
    12    7    8 2
    13    8    9 1
    14    8   32 1
    15    9   14 ar
    16    9   10 ar
    17   10   11 ar
    18   10   33 1
    19   11   12 ar
    20   11   34 1
    21   12   13 ar
    22   12   15 1
    23   13   14 ar
    24   13   35 1
    25   14   36 1
    26   15   16 2
    27   15   17 1
    28   18   19 1
    29   18   37 1
    30   19   20 1
    31   19   27 1
    32   19   21 1
    33   21   22 2
    34   21   23 am
    35   23   24 am
    36   23   38 1
    37   24   25 2
    38   24   26 1
    39   26   27 2
@<TRIPOS>MOLECULE
ZINC40376019
   48    50     0     0     0
SMALL
USER_CHARGES

@<TRIPOS>ATOM
      1 C1          0.1421    1.3815    0.0267 C.3       1 <0>        -0.1112
      2 C2          0.2824   -0.1188    0.0052 C.ar      1 <0>        -0.0689
      3 C3          0.5018   -0.7745   -1.1935 C.ar      1 <0>        -0.1595
      4 C4          0.6318   -2.1515   -1.2224 C.ar      1 <0>        -0.0893
      5 C5          0.5429   -2.8805   -0.0544 C.ar      1 <0>        -0.1917
      6 C6          0.3217   -2.2255    1.1584 C.ar      1 <0>         0.1677
      7 C7          0.1975   -0.8348    1.1810 C.ar      1 <0>        -0.1431
      8 N1          0.2319   -2.9433    2.3216 N.2       1 <0>        -0.6562
      9 C8         -0.6616   -3.8973    2.4365 C.2       1 <0>         0.6727
     10 N2         -0.7313   -4.6368    3.5905 N.pl3     1 <0>        -0.8203
     11 N3         -1.5290   -4.1564    1.3998 N.pl3     1 <0>        -0.6522
     12 C9         -2.4096   -5.2197    1.4841 C.2       1 <0>         0.5290
     13 N4         -3.1911   -5.5884    0.5079 N.2       1 <0>        -0.6111
     14 C10        -3.9571   -6.7457    1.0034 C.3       1 <0>         0.0256
     15 H1         -5.0248   -6.5266    1.0081 H         1 <0>         0.1037
     16 C11        -3.4416   -6.9249    2.4181 C.2       1 <0>         0.4446
     17 O1         -3.8220   -7.8556    3.3113 O.3       1 <0>        -0.6498
     18 N5         -2.5475   -5.9903    2.5842 N.2       1 <0>        -0.6975
     19 C12        -3.6664   -7.9873    0.1579 C.3       1 <0>        -0.0958
     20 C13        -4.1990   -7.7813   -1.2367 C.2       1 <0>         0.5161
     21 O2         -4.7562   -6.7435   -1.5259 O.2       1 <0>        -0.4827
     22 N6         -4.0561   -8.7502   -2.1626 N.am      1 <0>        -0.6836
     23 C14        -4.4446   -8.5159   -3.4862 C.ar      1 <0>         0.1659
     24 C15        -4.9693   -9.5498   -4.2510 C.ar      1 <0>        -0.1041
     25 C16        -5.3517   -9.3152   -5.5570 C.ar      1 <0>        -0.0969
     26 C17        -5.2128   -8.0524   -6.1036 C.ar      1 <0>        -0.0827
     27 C18        -4.6904   -7.0212   -5.3451 C.ar      1 <0>        -0.0270
     28 C19        -4.3117   -7.2478   -4.0362 C.ar      1 <0>        -0.0640
     29 N7         -4.5425   -5.6715   -5.9344 N.pl3     1 <0>         0.0330
     30 O3         -4.8784   -5.4713   -7.0784 O.2       1 <0>        -0.1650
     31 O4         -4.0859   -4.7693   -5.2718 O.3       1 <0>        -0.1458
     32 H2          1.1234    1.8363    0.1619 H         1 <0>         0.0662
     33 H3         -0.2884    1.7197   -0.9158 H         1 <0>         0.0632
     34 H4         -0.5102    1.6736    0.8497 H         1 <0>         0.0631
     35 H5          0.5716   -0.2087   -2.1108 H         1 <0>         0.1140
     36 H6          0.8030   -2.6570   -2.1613 H         1 <0>         0.1155
     37 H7          0.6439   -3.9555   -0.0783 H         1 <0>         0.1143
     38 H8          0.0306   -0.3215    2.1164 H         1 <0>         0.1185
     39 H9         -0.1905   -4.3911    4.3573 H         1 <0>         0.3993
     40 H10        -1.5227   -3.5933    0.6100 H         1 <0>         0.4272
     41 H11        -2.5901   -8.1538    0.1149 H         1 <0>         0.0933
     42 H12        -4.1505   -8.8544    0.6073 H         1 <0>         0.1033
     43 H13        -3.6840   -9.6100   -1.9114 H         1 <0>         0.4154
     44 H14        -5.0777  -10.5362   -3.8248 H         1 <0>         0.1448
     45 H15        -5.7594  -10.1189   -6.1523 H         1 <0>         0.1494
     46 H16        -5.5126   -7.8716   -7.1253 H         1 <0>         0.1517
     47 H17        -3.9086   -6.4407   -3.4426 H         1 <0>         0.1685
     48 H18        -1.3213   -5.4051    3.6392 H         1 <0>         0.4326
@<TRIPOS>BOND
     1    1    2 1
     2    1   32 1
     3    1   33 1
     4    1   34 1
     5    2    7 ar
     6    2    3 ar
     7    3    4 ar
     8    3   35 1
     9    4    5 ar
    10    4   36 1
    11    5    6 ar
    12    5   37 1
    13    6    7 ar
    14    6    8 1
    15    7   38 1
    16    8    9 2
    17    9   10 1
    18    9   11 1
    19   10   39 1
    20   10   48 1
    21   11   12 1
    22   11   40 1
    23   12   18 1
    24   12   13 2
    25   13   14 1
    26   14   15 1
    27   14   16 1
    28   14   19 1
    29   16   17 1
    30   16   18 2
    31   19   20 1
    32   19   41 1
    33   19   42 1
    34   20   21 2
    35   20   22 am
    36   22   23 1
    37   22   43 1
    38   23   28 ar
    39   23   24 ar
    40   24   25 ar
    41   24   44 1
    42   25   26 ar
    43   25   45 1
    44   26   27 ar
    45   26   46 1
    46   27   28 ar
    47   27   29 1
    48   28   47 1
    49   29   30 2
    50   29   31 1
@<TRIPOS>MOLECULE
ZINC37395979
   35    36     0     0     0
SMALL
USER_CHARGES

@<TRIPOS>ATOM
      1 C1          0.0234    1.6955   -0.4181 C.3       1 <0>        -0.0661
      2 C2          0.0990    0.1905   -0.4369 C.2       1 <0>        -0.1607
      3 C3         -0.9095   -0.7144   -0.4736 C.2       1 <0>        -0.0940
      4 C4         -0.6009   -2.0618   -0.4855 C.2       1 <0>        -0.7120
      5 C5          0.7009   -2.4382   -0.4601 C.2       1 <0>        -0.0091
      6 S1          1.5403   -0.8630   -0.4247 S.3       1 <0>         0.0663
      7 C6          1.2877   -3.8263   -0.4660 C.3       1 <0>        -0.1227
      8 S2         -1.8809   -3.2718   -0.5324 S.o2      1 <0>         2.7016
      9 O1         -1.5743   -4.2265    0.4744 O.2       1 <0>        -0.9466
     10 O2         -3.1110   -2.5609   -0.5588 O.2       1 <0>        -0.9642
     11 N1         -1.7578   -4.0588   -1.9842 N.pl3     1 <0>        -0.9661
     12 C7         -1.0438   -5.3353   -2.0672 C.3       1 <0>         0.1344
     13 C8         -2.0445   -6.4875   -1.9573 C.3       1 <0>        -0.2019
     14 C9         -1.3100   -7.8006   -2.0427 C.2       1 <0>         0.4970
     15 O3         -0.0985   -7.8137   -2.1788 O.co2     1 <0>        -0.6996
     16 O4         -1.9274   -8.8498   -1.9757 O.co2     1 <0>        -0.7004
     17 C10        -2.3629   -3.4785   -3.1856 C.3       1 <0>         0.0780
     18 C11        -2.3926   -4.3412   -4.4488 C.3       1 <0>        -0.1744
     19 C12        -1.4344   -3.1520   -4.3570 C.3       1 <0>        -0.1956
     20 H1          1.0313    2.1097   -0.3936 H         1 <0>         0.0712
     21 H2         -0.4913    2.0447   -1.3132 H         1 <0>         0.0806
     22 H3         -0.5246    2.0207    0.4663 H         1 <0>         0.0803
     23 H4         -1.9387   -0.3876   -0.4929 H         1 <0>         0.1470
     24 H5          1.3758   -4.1792   -1.4935 H         1 <0>         0.1052
     25 H6          2.2744   -3.8056   -0.0031 H         1 <0>         0.0925
     26 H7          0.6375   -4.4980    0.0944 H         1 <0>         0.1153
     27 H8         -0.5210   -5.3979   -3.0216 H         1 <0>         0.0813
     28 H9         -0.3224   -5.4017   -1.2527 H         1 <0>         0.0907
     29 H10        -2.5673   -6.4249   -1.0029 H         1 <0>         0.0633
     30 H11        -2.7659   -6.4210   -2.7717 H         1 <0>         0.0657
     31 H12        -3.2070   -2.8113   -3.0114 H         1 <0>         0.1366
     32 H13        -1.9620   -5.3406   -4.3860 H         1 <0>         0.1110
     33 H14        -3.2566   -4.2418   -5.1059 H         1 <0>         0.1009
     34 H15        -1.6679   -2.2703   -4.9537 H         1 <0>         0.0975
     35 H16        -0.3733   -3.3690   -4.2338 H         1 <0>         0.0968
@<TRIPOS>BOND
     1    1    2 1
     2    1   20 1
     3    1   21 1
     4    1   22 1
     5    2    6 1
     6    2    3 2
     7    3    4 1
     8    3   23 1
     9    4    5 2
    10    4    8 1
    11    5    6 1
    12    5    7 1
    13    7   24 1
    14    7   25 1
    15    7   26 1
    16    8    9 2
    17    8   10 2
    18    8   11 1
    19   11   12 1
    20   11   17 1
    21   12   13 1
    22   12   27 1
    23   12   28 1
    24   13   14 1
    25   13   29 1
    26   13   30 1
    27   14   15 2
    28   14   16 1
    29   17   19 1
    30   17   18 1
    31   17   31 1
    32   18   19 1
    33   18   32 1
    34   18   33 1
    35   19   34 1
    36   19   35 1
@<TRIPOS>MOLECULE
ZINC38100267
   43    43     0     0     0
SMALL
USER_CHARGES

@<TRIPOS>ATOM
      1 C1         -0.6983    2.1498   -0.5769 C.3       1 <0>         0.0833
      2 N1         -1.6092    1.9338   -1.7038 N.am      1 <0>        -0.6259
      3 C2         -2.8183    2.7505   -1.8354 C.3       1 <0>         0.1167
      4 C3         -2.5029    3.9992   -2.6612 C.3       1 <0>         0.0463
      5 O1         -2.1595    3.6146   -3.9940 O.3       1 <0>        -0.3649
      6 C4         -1.8453    4.7125   -4.8530 C.3       1 <0>         0.0321
      7 C5         -1.3348    0.9836   -2.6194 C.2       1 <0>         0.5249
      8 O2         -2.0889    0.8048   -3.5523 O.2       1 <0>        -0.5177
      9 C6         -0.0911    0.1435   -2.4841 C.3       1 <0>        -0.1376
     10 C7         -0.0967   -0.9518   -3.5523 C.3       1 <0>        -0.0051
     11 C8          1.1214   -1.8575   -3.3605 C.3       1 <0>        -0.1188
     12 C9          2.3998   -1.0268   -3.4887 C.3       1 <0>        -0.1168
     13 C10         2.4544   -0.3857   -4.8769 C.3       1 <0>        -0.1174
     14 C11         1.2363    0.5200   -5.0686 C.3       1 <0>        -0.1141
     15 C12        -0.0422   -0.3108   -4.9404 C.3       1 <0>        -0.1227
     16 C13        -1.3751   -1.7826   -3.4241 C.3       1 <0>        -0.1878
     17 C14        -1.4718   -2.3438   -2.0288 C.2       1 <0>         0.4942
     18 O3         -0.5460   -2.2003   -1.2486 O.co2     1 <0>        -0.6940
     19 O4         -2.4757   -2.9413   -1.6803 O.co2     1 <0>        -0.7092
     20 H1         -0.9970    1.5163    0.2583 H         1 <0>         0.0565
     21 H2          0.3185    1.8983   -0.8782 H         1 <0>         0.0713
     22 H3         -0.7388    3.1956   -0.2723 H         1 <0>         0.0601
     23 H4         -3.5953    2.1715   -2.3345 H         1 <0>         0.0906
     24 H5         -3.1656    3.0475   -0.8458 H         1 <0>         0.0853
     25 H6         -3.3772    4.6497   -2.6846 H         1 <0>         0.0508
     26 H7         -1.6658    4.5316   -2.2096 H         1 <0>         0.0442
     27 H8         -2.7060    5.3779   -4.9219 H         1 <0>         0.0348
     28 H9         -0.9946    5.2597   -4.4469 H         1 <0>         0.0339
     29 H10        -1.5958    4.3374   -5.8456 H         1 <0>         0.0825
     30 H11         0.7889    0.7735   -2.6143 H         1 <0>         0.0740
     31 H12        -0.0673   -0.3137   -1.4949 H         1 <0>         0.1289
     32 H13         1.0825   -2.3142   -2.3716 H         1 <0>         0.1039
     33 H14         1.1173   -2.6379   -4.1216 H         1 <0>         0.0427
     34 H15         2.4039   -0.2464   -2.7277 H         1 <0>         0.0575
     35 H16         3.2676   -1.6720   -3.3521 H         1 <0>         0.0499
     36 H17         3.3652    0.2061   -4.9682 H         1 <0>         0.0475
     37 H18         2.4503   -1.1661   -5.6379 H         1 <0>         0.0546
     38 H19         1.2403    1.3003   -4.3076 H         1 <0>         0.0549
     39 H20         1.2751    0.9767   -6.0576 H         1 <0>         0.0473
     40 H21        -0.0462   -1.0911   -5.7014 H         1 <0>         0.0463
     41 H22        -0.9100    0.3345   -5.0770 H         1 <0>         0.0859
     42 H23        -2.2407   -1.1504   -3.6222 H         1 <0>         0.0836
     43 H24        -1.3505   -2.6007   -4.1439 H         1 <0>         0.0471
@<TRIPOS>BOND
     1    1    2 1
     2    1   20 1
     3    1   21 1
     4    1   22 1
     5    2    3 1
     6    2    7 am
     7    3    4 1
     8    3   23 1
     9    3   24 1
    10    4    5 1
    11    4   25 1
    12    4   26 1
    13    5    6 1
    14    6   27 1
    15    6   28 1
    16    6   29 1
    17    7    8 2
    18    7    9 1
    19    9   10 1
    20    9   30 1
    21    9   31 1
    22   10   15 1
    23   10   11 1
    24   10   16 1
    25   11   12 1
    26   11   32 1
    27   11   33 1
    28   12   13 1
    29   12   34 1
    30   12   35 1
    31   13   14 1
    32   13   36 1
    33   13   37 1
    34   14   15 1
    35   14   38 1
    36   14   39 1
    37   15   40 1
    38   15   41 1
    39   16   17 1
    40   16   42 1
    41   16   43 1
    42   17   18 2
    43   17   19 1
@<TRIPOS>MOLECULE
ZINC45038517
   30    30     0     0     0
SMALL
USER_CHARGES

@<TRIPOS>ATOM
      1 C1         -0.0187    1.5258    0.0104 C.3       1 <0>        -0.1440
      2 C2          0.0021   -0.0041    0.0020 C.3       1 <0>         0.0729
      3 C3          0.7421   -0.5109    1.2415 C.3       1 <0>        -0.1067
      4 C4          0.0259   -0.0175    2.5003 C.3       1 <0>         0.0532
      5 O1          0.7171   -0.4909    3.6580 O.3       1 <0>        -0.4040
      6 C5          0.1269   -0.0840    4.8942 C.3       1 <0>         0.0372
      7 C6         -1.4117   -0.5257    0.0127 C.2       1 <0>         0.5104
      8 O2         -1.8097   -1.2271   -0.9017 O.co2     1 <0>        -0.6609
      9 O3         -2.1576   -0.2463    0.9358 O.co2     1 <0>        -0.6770
     10 N1          0.6878   -0.4765   -1.2033 N.am      1 <0>        -0.4514
     11 C7          1.7998   -1.2471   -1.0846 C.2       1 <0>         0.1833
     12 C8          2.4502   -1.6959   -2.1842 C.2       1 <0>        -0.2296
     13 C9          1.9756   -1.3649   -3.4618 C.2       1 <0>        -0.0094
     14 C10         0.8586   -0.5909   -3.5783 C.2       1 <0>        -0.2311
     15 C11         0.2051   -0.1464   -2.4163 C.2       1 <0>         0.5246
     16 O4         -0.7983    0.5428   -2.5065 O.2       1 <0>        -0.5139
     17 Br1         3.9973   -2.7672   -1.9974 Br        1 <0>        -0.0485
     18 H1          1.0039    1.9031    0.0027 H         1 <0>         0.0446
     19 H2         -0.5459    1.8868   -0.8726 H         1 <0>         0.0789
     20 H3         -0.5289    1.8773    0.9072 H         1 <0>         0.0775
     21 H4          0.7568   -1.6008    1.2356 H         1 <0>         0.0725
     22 H5          1.7647   -0.1336    1.2338 H         1 <0>         0.0657
     23 H6          0.0111    1.0724    2.5063 H         1 <0>         0.0477
     24 H7         -0.9967   -0.3948    2.5081 H         1 <0>         0.1024
     25 H8          0.7098   -0.4834    5.7241 H         1 <0>         0.0782
     26 H9          0.1142    1.0045    4.9499 H         1 <0>         0.0361
     27 H10        -0.8936   -0.4626    4.9516 H         1 <0>         0.0416
     28 H11         2.1694   -1.5043   -0.1029 H         1 <0>         0.1663
     29 H12         2.4891   -1.7188   -4.3436 H         1 <0>         0.1344
     30 H13         0.4779   -0.3256   -4.5536 H         1 <0>         0.1489
@<TRIPOS>BOND
     1    1    2 1
     2    1   18 1
     3    1   19 1
     4    1   20 1
     5    2    3 1
     6    2    7 1
     7    2   10 1
     8    3    4 1
     9    3   21 1
    10    3   22 1
    11    4    5 1
    12    4   23 1
    13    4   24 1
    14    5    6 1
    15    6   25 1
    16    6   26 1
    17    6   27 1
    18    7    8 2
    19    7    9 1
    20   10   15 am
    21   10   11 1
    22   11   12 2
    23   11   28 1
    24   12   13 1
    25   12   17 1
    26   13   14 2
    27   13   29 1
    28   14   15 1
    29   14   30 1
    30   15   16 2
@<TRIPOS>MOLECULE
ZINC57969794
   38    39     0     0     0
SMALL
USER_CHARGES

@<TRIPOS>ATOM
      1 C1         -0.2015    1.4542    0.2963 C.3       1 <0>        -0.1080
      2 C2         -0.1383   -0.0501    0.2335 C.ar      1 <0>        -0.0926
      3 C3         -0.2262   -0.6953   -0.9859 C.ar      1 <0>        -0.1283
      4 C4         -0.1682   -2.0752   -1.0435 C.ar      1 <0>        -0.1005
      5 C5         -0.0218   -2.8100    0.1183 C.ar      1 <0>        -0.0865
      6 C6          0.0670   -2.1648    1.3376 C.ar      1 <0>        -0.0660
      7 C7          0.0133   -0.7846    1.3948 C.ar      1 <0>        -0.1229
      8 C8          0.0404   -4.3144    0.0556 C.3       1 <0>         0.1949
      9 H1         -0.4301   -4.6730   -0.8599 H         1 <0>         0.0728
     10 C9          1.5079   -4.7921    0.1249 C.3       1 <0>        -0.1668
     11 H2          1.9000   -4.9938   -0.8719 H         1 <0>         0.0852
     12 C10         1.3761   -6.0979    0.9424 C.3       1 <0>        -0.1342
     13 C11         0.1078   -5.9069    1.7447 C.2       1 <0>         0.5447
     14 O1         -0.2081   -6.5666    2.7121 O.2       1 <0>        -0.5354
     15 N1         -0.6196   -4.8993    1.2286 N.am      1 <0>        -0.6059
     16 C12        -1.9033   -4.4436    1.7678 C.3       1 <0>         0.1277
     17 C13        -3.0409   -5.2194    1.1009 C.3       1 <0>         0.0450
     18 O2         -2.9495   -6.6000    1.4583 O.3       1 <0>        -0.3720
     19 C14        -3.9714   -7.4177    0.8846 C.3       1 <0>         0.0323
     20 C15         2.3685   -3.7875    0.8468 C.2       1 <0>         0.5094
     21 O3          2.3927   -3.7696    2.0657 O.co2     1 <0>        -0.6855
     22 O4          3.0406   -2.9926    0.2121 O.co2     1 <0>        -0.6887
     23 H3          0.8046    1.8642    0.2080 H         1 <0>         0.0664
     24 H4         -0.8185    1.8264   -0.5215 H         1 <0>         0.0596
     25 H5         -0.6363    1.7602    1.2479 H         1 <0>         0.0605
     26 H6         -0.3405   -0.1213   -1.8935 H         1 <0>         0.1141
     27 H7         -0.2376   -2.5793   -1.9961 H         1 <0>         0.1150
     28 H8          0.1810   -2.7388    2.2452 H         1 <0>         0.1284
     29 H9          0.0865   -0.2804    2.3470 H         1 <0>         0.1143
     30 H10         1.2811   -6.9564    0.2775 H         1 <0>         0.0853
     31 H11         2.2322   -6.2208    1.6057 H         1 <0>         0.1021
     32 H12        -1.9274   -4.6165    2.8437 H         1 <0>         0.0866
     33 H13        -2.0237   -3.3788    1.5682 H         1 <0>         0.0928
     34 H14        -3.9982   -4.8200    1.4357 H         1 <0>         0.0538
     35 H15        -2.9637   -5.1184    0.0183 H         1 <0>         0.0488
     36 H16        -3.8321   -8.4506    1.2037 H         1 <0>         0.0821
     37 H17        -4.9480   -7.0639    1.2150 H         1 <0>         0.0358
     38 H18        -3.9136   -7.3624   -0.2024 H         1 <0>         0.0356
@<TRIPOS>BOND
     1    1    2 1
     2    1   23 1
     3    1   24 1
     4    1   25 1
     5    2    7 ar
     6    2    3 ar
     7    3    4 ar
     8    3   26 1
     9    4    5 ar
    10    4   27 1
    11    5    6 ar
    12    5    8 1
    13    6    7 ar
    14    6   28 1
    15    7   29 1
    16    8    9 1
    17    8   15 1
    18    8   10 1
    19   10   11 1
    20   10   12 1
    21   10   20 1
    22   12   13 1
    23   12   30 1
    24   12   31 1
    25   13   14 2
    26   13   15 am
    27   15   16 1
    28   16   17 1
    29   16   32 1
    30   16   33 1
    31   17   18 1
    32   17   34 1
    33   17   35 1
    34   18   19 1
    35   19   36 1
    36   19   37 1
    37   19   38 1
    38   20   21 2
    39   20   22 1
@<TRIPOS>MOLECULE
ZINC62954509
   40    40     0     0     0
SMALL
USER_CHARGES

@<TRIPOS>ATOM
      1 C1         -0.0187    1.5258    0.0104 C.3       1 <0>        -0.1564
      2 C2          0.0021   -0.0041    0.0020 C.3       1 <0>        -0.1130
      3 C3          0.7182   -0.4975   -1.2568 C.3       1 <0>        -0.0603
      4 C4         -0.0212    0.0110   -2.4965 C.3       1 <0>        -0.1221
      5 C5          0.7180   -0.4559   -3.7544 C.3       1 <0>         0.1145
      6 N1          0.8699   -1.9162   -3.6990 N.pl3     1 <0>        -1.0023
      7 C6          1.4867   -2.5177   -2.5089 C.3       1 <0>         0.1151
      8 C7          0.7388   -2.0277   -1.2649 C.3       1 <0>        -0.1204
      9 S1          0.3551   -2.8662   -4.9540 S.o2      1 <0>         2.6026
     10 O1          0.0750   -4.1276   -4.3627 O.2       1 <0>        -0.9565
     11 O2         -0.6760   -2.1141   -5.5788 O.2       1 <0>        -0.9565
     12 C8          1.7888   -2.9979   -6.0575 C.3       1 <0>        -0.6185
     13 C9          1.4247   -3.8633   -7.2656 C.3       1 <0>        -0.0870
     14 C10         2.6339   -3.9744   -8.1963 C.3       1 <0>        -0.1746
     15 C11         2.2753   -4.8268   -9.3862 C.2       1 <0>         0.4883
     16 O3          1.1563   -5.3015   -9.4810 O.co2     1 <0>        -0.6957
     17 O4          3.1042   -5.0418  -10.2541 O.co2     1 <0>        -0.7040
     18 C12         2.1538    0.0317   -1.2670 C.3       1 <0>        -0.1485
     19 H1          1.0039    1.9031    0.0027 H         1 <0>         0.0567
     20 H2         -0.5459    1.8868   -0.8726 H         1 <0>         0.0575
     21 H3         -0.5289    1.8773    0.9072 H         1 <0>         0.0499
     22 H4          0.5293   -0.3651    0.8851 H         1 <0>         0.0609
     23 H5         -1.0205   -0.3814    0.0098 H         1 <0>         0.0610
     24 H6         -1.0364   -0.3857   -2.5028 H         1 <0>         0.0684
     25 H7         -0.0559    1.1003   -2.4781 H         1 <0>         0.0766
     26 H8          0.1433   -0.1815   -4.6390 H         1 <0>         0.0935
     27 H9          1.7015    0.0125   -3.7953 H         1 <0>         0.0692
     28 H10         1.4191   -3.6038   -2.5717 H         1 <0>         0.0937
     29 H11         2.5328   -2.2175   -2.4482 H         1 <0>         0.0694
     30 H12         1.2451   -2.3895   -0.3700 H         1 <0>         0.0732
     31 H13        -0.2836   -2.4052   -1.2829 H         1 <0>         0.0687
     32 H14         2.0785   -2.0035   -6.3971 H         1 <0>         0.1252
     33 H15         2.6199   -3.4549   -5.5204 H         1 <0>         0.1252
     34 H16         1.1350   -4.8577   -6.9260 H         1 <0>         0.0766
     35 H17         0.5936   -3.4063   -7.8026 H         1 <0>         0.0766
     36 H18         2.9236   -2.9800   -8.5359 H         1 <0>         0.0605
     37 H19         3.4650   -4.4314   -7.6593 H         1 <0>         0.0605
     38 H20         2.6806   -0.3298   -0.3839 H         1 <0>         0.0534
     39 H21         2.6641   -0.3197   -2.1638 H         1 <0>         0.0613
     40 H22         2.1393    1.1216   -1.2608 H         1 <0>         0.0575
@<TRIPOS>BOND
     1    1    2 1
     2    1   19 1
     3    1   20 1
     4    1   21 1
     5    2    3 1
     6    2   22 1
     7    2   23 1
     8    3    8 1
     9    3    4 1
    10    3   18 1
    11    4    5 1
    12    4   24 1
    13    4   25 1
    14    5    6 1
    15    5   26 1
    16    5   27 1
    17    6    7 1
    18    6    9 1
    19    7    8 1
    20    7   28 1
    21    7   29 1
    22    8   30 1
    23    8   31 1
    24    9   10 2
    25    9   11 2
    26    9   12 1
    27   12   13 1
    28   12   32 1
    29   12   33 1
    30   13   14 1
    31   13   34 1
    32   13   35 1
    33   14   15 1
    34   14   36 1
    35   14   37 1
    36   15   16 2
    37   15   17 1
    38   18   38 1
    39   18   39 1
    40   18   40 1
@<TRIPOS>MOLECULE
ZINC02100011
   36    36     0     0     0
SMALL
USER_CHARGES
4-(4-methylpent-3-enylidene)cyclohexane-1,2-dicarboxylic acid
@<TRIPOS>ATOM
      1 C1          0.3482    3.7222    5.7422 C.3       1 <0>        -0.1051
      2 C2          1.4278    4.0268    4.7358 C.2       1 <0>        -0.1965
      3 C3          1.4669    3.3754    3.5999 C.2       1 <0>        -0.0970
      4 C4          0.4813    2.2673    3.3324 C.3       1 <0>        -0.0573
      5 C5         -0.3455    2.6120    2.1205 C.2       1 <0>        -0.1922
      6 C6         -0.4214    1.7712    1.1187 C.2       1 <0>        -0.0464
      7 C7         -1.1071    2.1622   -0.1718 C.3       1 <0>        -0.0725
      8 C8         -0.1590    1.8619   -1.3375 C.3       1 <0>        -0.0929
      9 C9          0.2769    0.3971   -1.2740 C.3       1 <0>        -0.1054
     10 H1         -0.6049   -0.2437   -1.2812 H         1 <0>         0.0465
     11 C10         1.0755    0.1487    0.0067 C.3       1 <0>        -0.1115
     12 H2          1.4369   -0.8796    0.0160 H         1 <0>         0.0576
     13 C11         0.1739    0.3845    1.2230 C.3       1 <0>        -0.0769
     14 C12         2.2479    1.0941    0.0593 C.2       1 <0>         0.4813
     15 O1          2.0939    2.2262    0.4523 O.co2     1 <0>        -0.6522
     16 C13         1.1362    0.0776   -2.4701 C.2       1 <0>         0.4527
     17 O2          2.2702   -0.3088   -2.3133 O.co2     1 <0>        -0.5852
     18 C14         2.4624    5.0805    5.0362 C.3       1 <0>        -0.1032
     19 H3          0.6470    2.8667    6.3479 H         1 <0>         0.0536
     20 H4          0.1972    4.5885    6.3864 H         1 <0>         0.0472
     21 H5         -0.5804    3.4913    5.2203 H         1 <0>         0.0638
     22 H6          2.2054    3.6327    2.8551 H         1 <0>         0.1189
     23 H7         -0.1728    2.1464    4.1960 H         1 <0>         0.0552
     24 H8          1.0204    1.3373    3.1519 H         1 <0>         0.0839
     25 H9         -0.8753    3.5521    2.0778 H         1 <0>         0.0894
     26 H10        -2.0246    1.5854   -0.2882 H         1 <0>         0.0518
     27 H11        -1.3403    3.2268   -0.1545 H         1 <0>         0.0516
     28 H12        -0.6724    2.0478   -2.2808 H         1 <0>         0.0526
     29 H13         0.7180    2.5055   -1.2679 H         1 <0>         0.0759
     30 H14        -0.6251   -0.3568    1.2357 H         1 <0>         0.0497
     31 H15         0.7629    0.3036    2.1365 H         1 <0>         0.0625
     32 H16         3.1546    5.1595    4.1979 H         1 <0>         0.0593
     33 H17         1.9692    6.0400    5.1918 H         1 <0>         0.0507
     34 H18         3.0117    4.8042    5.9362 H         1 <0>         0.0519
     35 O3          3.4632    0.6784   -0.3306 O.co2     1 <0>        -0.7517
     36 O4          0.6418    0.2224   -3.7096 O.co2     1 <0>        -0.8104
@<TRIPOS>BOND
     1    1    2 1
     2    1   19 1
     3    1   20 1
     4    1   21 1
     5    2    3 2
     6    2   18 1
     7    3    4 1
     8    3   22 1
     9    4    5 1
    10    4   23 1
    11    4   24 1
    12    5    6 2
    13    5   25 1
    14    6   13 1
    15    6    7 1
    16    7    8 1
    17    7   26 1
    18    7   27 1
    19    8    9 1
    20    8   28 1
    21    8   29 1
    22    9   10 1
    23    9   11 1
    24    9   16 1
    25   11   12 1
    26   11   13 1
    27   11   14 1
    28   13   30 1
    29   13   31 1
    30   14   15 2
    31   14   35 1
    32   16   17 2
    33   16   36 1
    34   18   32 1
    35   18   33 1
    36   18   34 1
@<TRIPOS>MOLECULE
ZINC05953352
   36    38     0     0     0
SMALL
USER_CHARGES
(2S,3E)-2-ethoxy-6-methyl-3-[[(2-thioxo-3H-1,3,4-thiadiazol-5-yl)amino]methylene]chroman-4-one
@<TRIPOS>ATOM
      1 C1         -1.3077    5.4093    3.3297 C.3       1 <0>        -0.1472
      2 C2         -1.3622    5.1648    1.8204 C.3       1 <0>         0.0522
      3 O1         -1.1601    3.7752    1.5554 O.3       1 <0>        -0.3864
      4 C3         -1.1926    3.4374    0.1673 C.3       1 <0>         0.3449
      5 H1         -2.0676    3.9233   -0.2891 H         1 <0>         0.1168
      6 C4         -1.2377    1.9365    0.0183 C.2       1 <0>        -0.4427
      7 C5         -2.4192    1.2909   -0.0993 C.2       1 <0>         0.2750
      8 N1         -3.5889    1.9986   -0.0885 N.2       1 <0>        -0.5726
      9 C6         -4.8034    1.3350   -0.2093 C.2       1 <0>         0.3287
     10 N2         -6.0138    1.8295   -0.2206 N.2       1 <0>        -0.3713
     11 N3         -7.1054    1.0019   -0.3510 N.2       1 <0>        -0.3678
     12 C7         -6.8984   -0.3340   -0.4671 C.2       1 <0>         0.2782
     13 S1         -8.0374   -1.6001   -0.6412 S.3       1 <0>        -0.7242
     14 S2         -5.1151   -0.4132   -0.3971 S.3       1 <0>        -0.3080
     15 C8         -0.0144    1.2143    0.0087 C.2       1 <0>         0.4420
     16 O2          0.0021   -0.0041    0.0020 O.3       1 <0>        -0.5376
     17 C9          1.2391    2.0011    0.0010 C.ar      1 <0>        -0.1900
     18 C10         2.4730    1.3910    0.2103 C.ar      1 <0>        -0.0455
     19 C11         3.6203    2.1575    0.2138 C.ar      1 <0>        -0.1445
     20 C12         3.5458    3.5260    0.0113 C.ar      1 <0>        -0.0821
     21 C13         2.3270    4.1395   -0.2037 C.ar      1 <0>        -0.1662
     22 C14         1.1651    3.3835   -0.2191 C.ar      1 <0>         0.1744
     23 O3         -0.0325    3.9633   -0.4732 O.3       1 <0>        -0.3402
     24 C15         4.9594    1.5036    0.4383 C.3       1 <0>        -0.1026
     25 H2         -1.4633    6.4790    3.5337 H         1 <0>         0.0608
     26 H3         -0.3247    5.1016    3.7157 H         1 <0>         0.0556
     27 H4         -2.0959    4.8232    3.8248 H         1 <0>         0.0622
     28 H5         -2.3452    5.4725    1.4344 H         1 <0>         0.0480
     29 H6         -0.5740    5.7509    1.3253 H         1 <0>         0.0419
     30 H7         -2.4397    0.1961   -0.2037 H         1 <0>         0.0938
     31 H8          2.5317    0.3244    0.3697 H         1 <0>         0.1278
     32 H9          4.4487    4.1185    0.0219 H         1 <0>         0.1192
     33 H10         2.2793    5.2070   -0.3600 H         1 <0>         0.1245
     34 H11         5.7503    2.2675    0.4072 H         1 <0>         0.0579
     35 H12         5.1395    0.7570   -0.3492 H         1 <0>         0.0626
     36 H13         4.9658    1.0090    1.4208 H         1 <0>         0.0624
@<TRIPOS>BOND
     1    1    2 1
     2    1   25 1
     3    1   26 1
     4    1   27 1
     5    2    3 1
     6    2   28 1
     7    2   29 1
     8    3    4 1
     9    4    5 1
    10    4   23 1
    11    4    6 1
    12    6    7 1
    13    6   15 2
    14    7    8 2
    15    7   30 1
    16    8    9 1
    17    9   14 1
    18    9   10 2
    19   10   11 1
    20   11   12 2
    21   12   13 1
    22   12   14 1
    23   15   16 1
    24   15   17 1
    25   17   22 ar
    26   17   18 ar
    27   18   19 ar
    28   18   31 1
    29   19   20 ar
    30   19   24 1
    31   20   21 ar
    32   20   32 1
    33   21   22 ar
    34   21   33 1
    35   22   23 1
    36   24   34 1
    37   24   35 1
    38   24   36 1
@<TRIPOS>MOLECULE
ZINC37656741
   33    34     0     0     0
SMALL
USER_CHARGES

@<TRIPOS>ATOM
      1 C1         -0.0167    1.3789    0.0096 C.ar      1 <0>        -0.1846
      2 C2          1.1698    2.0899    0.0021 C.ar      1 <0>        -0.1084
      3 C3          2.3786    1.4195   -0.0135 C.ar      1 <0>         0.0361
      4 C4          2.4004    0.0285   -0.0212 C.ar      1 <0>         0.2670
      5 C5          1.2077   -0.6810   -0.0132 C.ar      1 <0>        -0.2235
      6 C6          0.0021   -0.0041    0.0020 C.ar      1 <0>        -0.0300
      7 Br1        -1.6233   -0.9705    0.0124 Br        1 <0>        -0.0882
      8 N1          3.6213   -0.6532   -0.0375 N.2       1 <0>        -1.0971
      9 S1          3.6450   -2.3090   -0.0466 S.o2      1 <0>         2.7257
     10 O1          3.1129   -2.7297    1.2020 O.2       1 <0>        -1.0460
     11 O2          3.0872   -2.7163   -1.2885 O.2       1 <0>        -1.0453
     12 N2          5.2337   -2.7758   -0.0655 N.pl3     1 <0>        -0.9869
     13 C7          5.9405   -2.9742   -1.3382 C.3       1 <0>         0.1290
     14 C8          6.5633   -4.3738   -1.3435 C.3       1 <0>        -0.1050
     15 C9          7.4437   -4.5407   -0.1029 C.3       1 <0>        -0.1489
     16 C10         6.5858   -4.3984    1.1565 C.3       1 <0>        -0.1067
     17 C11         5.9649   -2.9937    1.1901 C.3       1 <0>         0.1308
     18 C12         8.0850   -5.9043   -0.1221 C.2       1 <0>         0.4991
     19 O3          9.2454   -6.0372    0.2279 O.co2     1 <0>        -0.7119
     20 O4          7.4436   -6.8745   -0.4876 O.co2     1 <0>        -0.6997
     21 F1          3.5373    2.1142   -0.0217 F         1 <0>        -0.1420
     22 H1         -0.9598    1.9049    0.0260 H         1 <0>         0.1196
     23 H2          1.1518    3.1698    0.0081 H         1 <0>         0.1240
     24 H3          1.2212   -1.7609   -0.0195 H         1 <0>         0.1152
     25 H4          5.2362   -2.8845   -2.1652 H         1 <0>         0.0802
     26 H5          6.7253   -2.2247   -1.4410 H         1 <0>         0.0539
     27 H6          5.7725   -5.1239   -1.3320 H         1 <0>         0.0673
     28 H7          7.1706   -4.4984   -2.2400 H         1 <0>         0.0579
     29 H8          8.2193   -3.7748   -0.1023 H         1 <0>         0.0587
     30 H9          5.7948   -5.1483    1.1444 H         1 <0>         0.0617
     31 H10         7.2091   -4.5406    2.0393 H         1 <0>         0.0613
     32 H11         6.7516   -2.2457    1.2893 H         1 <0>         0.0560
     33 H12         5.2766   -2.9169    2.0318 H         1 <0>         0.0808
@<TRIPOS>BOND
     1    1    6 ar
     2    1    2 ar
     3    1   22 1
     4    2    3 ar
     5    2   23 1
     6    3    4 ar
     7    3   21 1
     8    4    5 ar
     9    4    8 1
    10    5    6 ar
    11    5   24 1
    12    6    7 1
    13    8    9 1
    14    9   10 2
    15    9   11 2
    16    9   12 1
    17   12   17 1
    18   12   13 1
    19   13   14 1
    20   13   25 1
    21   13   26 1
    22   14   15 1
    23   14   27 1
    24   14   28 1
    25   15   16 1
    26   15   18 1
    27   15   29 1
    28   16   17 1
    29   16   30 1
    30   16   31 1
    31   17   32 1
    32   17   33 1
    33   18   19 2
    34   18   20 1
@<TRIPOS>MOLECULE
ZINC05903004
   26    28     0     0     0
SMALL
USER_CHARGES

@<TRIPOS>ATOM
      1 C1         -0.0169    1.3965    0.0097 C.ar      1 <0>        -0.0542
      2 C2          1.1965    2.0612    0.0017 C.ar      1 <0>        -0.2365
      3 C3          2.3622    1.2972   -0.0135 C.ar      1 <0>         0.3613
      4 O1          3.5738    1.9080   -0.0214 O.3       1 <0>        -0.7089
      5 N1          2.2872   -0.0246   -0.0199 N.ar      1 <0>        -0.3474
      6 N2          1.1646   -0.6468   -0.0125 N.ar      1 <0>        -0.1861
      7 C4          0.0021   -0.0041    0.0020 C.ar      1 <0>         0.0034
      8 C5         -1.2652   -0.7632    0.0105 C.2       1 <0>         0.2289
      9 N3         -2.4775   -0.2586    0.0195 N.2       1 <0>        -0.2937
     10 N4         -3.3474   -1.2043    0.0246 N.2       1 <0>        -0.3416
     11 C6         -2.7454   -2.3733    0.0192 C.2       1 <0>         0.3724
     12 N5         -1.3987   -2.1350    0.0045 N.pl3     1 <0>        -0.4521
     13 C7         -0.3697   -3.0866   -0.0111 C.ar      1 <0>         0.2073
     14 C8          0.4779   -3.1760   -1.1069 C.ar      1 <0>        -0.0568
     15 C9          1.4923   -4.1151   -1.1198 C.ar      1 <0>        -0.0094
     16 C10         1.6632   -4.9655   -0.0417 C.ar      1 <0>        -0.1047
     17 C11         0.8196   -4.8782    1.0517 C.ar      1 <0>        -0.0164
     18 C12        -0.1930   -3.9373    1.0715 C.ar      1 <0>        -0.0713
     19 Cl1         1.0371   -5.9468    2.4025 Cl        1 <0>        -0.0717
     20 Cl2         2.5524   -4.2279   -2.4900 Cl        1 <0>        -0.0681
     21 S1         -3.5276   -3.9522    0.0239 S.3       1 <0>        -0.8131
     22 H1         -0.9497    1.9406    0.0260 H         1 <0>         0.1278
     23 H2          1.2392    3.1404    0.0067 H         1 <0>         0.1195
     24 H3          0.3447   -2.5128   -1.9488 H         1 <0>         0.1333
     25 H4          2.4561   -5.6987   -0.0537 H         1 <0>         0.1395
     26 H5         -0.8484   -3.8666    1.9270 H         1 <0>         0.1387
@<TRIPOS>BOND
     1    1    7 ar
     2    1    2 ar
     3    1   22 1
     4    2    3 ar
     5    2   23 1
     6    3    4 1
     7    3    5 ar
     8    5    6 ar
     9    6    7 ar
    10    7    8 1
    11    8   12 1
    12    8    9 2
    13    9   10 1
    14   10   11 2
    15   11   21 1
    16   11   12 1
    17   12   13 1
    18   13   18 ar
    19   13   14 ar
    20   14   15 ar
    21   14   24 1
    22   15   16 ar
    23   15   20 1
    24   16   17 ar
    25   16   25 1
    26   17   18 ar
    27   17   19 1
    28   18   26 1
@<TRIPOS>MOLECULE
ZINC62825230
   21    21     0     0     0
SMALL
USER_CHARGES

@<TRIPOS>ATOM
      1 C1         -0.2488    1.2627    0.4774 C.ar      1 <0>        -0.0375
      2 C2          0.8384    2.0700    0.2240 C.ar      1 <0>        -0.1537
      3 C3          2.0635    1.5119   -0.1099 C.ar      1 <0>        -0.0544
      4 C4          2.2087    0.1418   -0.1924 C.ar      1 <0>        -0.1755
      5 C5          1.1239   -0.6901    0.0602 C.ar      1 <0>         0.3202
      6 C6         -0.1187   -0.1282    0.3986 C.ar      1 <0>        -0.1562
      7 C7         -1.2747   -0.9961    0.6678 C.2       1 <0>         0.5292
      8 O1         -2.3550   -0.5025    0.9619 O.co2     1 <0>        -0.7264
      9 O2         -1.1564   -2.2119    0.5978 O.co2     1 <0>        -0.6380
     10 N1          1.2673   -2.0682   -0.0225 N.2       1 <0>        -1.0468
     11 S1          2.1218   -2.8830    1.1386 S.o2      1 <0>         2.4946
     12 O3          3.4572   -2.4174    0.9995 O.2       1 <0>        -0.9507
     13 O4          1.3994   -2.6624    2.3422 O.2       1 <0>        -0.9581
     14 C8          2.0154   -4.6286    0.6569 C.3       1 <0>        -0.0132
     15 F1          2.5775   -4.7971   -0.6130 F         1 <0>        -0.1740
     16 F2          2.7129   -5.4113    1.5832 F         1 <0>        -0.1992
     17 F3          0.6736   -5.0237    0.6292 F         1 <0>        -0.1554
     18 Br1         3.8849   -0.6045   -0.6499 Br        1 <0>        -0.0407
     19 Br2         0.6592    3.9495    0.3312 Br        1 <0>        -0.1053
     20 H1         -1.1993    1.7027    0.7409 H         1 <0>         0.1263
     21 H2          2.9094    2.1538   -0.3070 H         1 <0>         0.1145
@<TRIPOS>BOND
     1    1    6 ar
     2    1    2 ar
     3    1   20 1
     4    2    3 ar
     5    2   19 1
     6    3    4 ar
     7    3   21 1
     8    4    5 ar
     9    4   18 1
    10    5    6 ar
    11    5   10 1
    12    6    7 1
    13    7    8 2
    14    7    9 1
    15   10   11 1
    16   11   12 2
    17   11   13 2
    18   11   14 1
    19   14   15 1
    20   14   16 1
    21   14   17 1
@<TRIPOS>MOLECULE
ZINC02783485
   48    51     0     0     0
SMALL
USER_CHARGES
8-(3,5-dimethyl-1-phenyl-pyrazol-4-yl)carbonylamino-4-methyl-7-oxo-2-thia-6-azabicyclo[4.2.0]oct-4-ene-5-carboxylic acid
@<TRIPOS>ATOM
      1 C1         -5.6061    3.5815   -1.5478 C.3       1 <0>        -0.0789
      2 C2         -5.3346    2.2504   -2.2001 C.2       1 <0>         0.1238
      3 C3         -4.2593    1.3834   -1.9008 C.2       1 <0>        -0.2793
      4 C4         -4.3799    0.2838   -2.7270 C.2       1 <0>         0.1428
      5 N1         -5.4775    0.4678   -3.4831 N.pl3     1 <0>        -0.3155
      6 N2         -6.0508    1.6974   -3.1400 N.2       1 <0>        -0.2895
      7 C5         -5.9611   -0.4191   -4.4546 C.ar      1 <0>         0.1468
      8 C6         -6.4326    0.0667   -5.6668 C.ar      1 <0>        -0.1043
      9 C7         -6.9037   -0.8102   -6.6243 C.ar      1 <0>        -0.1035
     10 C8         -6.9167   -2.1697   -6.3722 C.ar      1 <0>        -0.1171
     11 C9         -6.4526   -2.6562   -5.1638 C.ar      1 <0>        -0.0998
     12 C10        -5.9750   -1.7848   -4.2046 C.ar      1 <0>        -0.1229
     13 C11        -3.4549   -0.9051   -2.7710 C.3       1 <0>        -0.1060
     14 C12        -3.2031    1.6130   -0.8984 C.2       1 <0>         0.6088
     15 O1         -3.3563    1.2289    0.2452 O.2       1 <0>        -0.5165
     16 N3         -2.0676    2.2486   -1.2495 N.am      1 <0>        -0.7017
     17 C13        -1.0179    2.4768   -0.2533 C.3       1 <0>         0.1260
     18 H1         -1.4005    2.5530    0.7644 H         1 <0>         0.1578
     19 C14        -0.0452    3.5710   -0.6271 C.3       1 <0>         0.1296
     20 H2         -0.1517    3.9466   -1.6448 H         1 <0>         0.1285
     21 N4          1.0300    2.5677   -0.4301 N.am      1 <0>        -0.5477
     22 C15         0.1672    1.5619   -0.3938 C.2       1 <0>         0.5240
     23 O2          0.2879    0.3566   -0.4560 O.2       1 <0>        -0.4475
     24 C16         2.3973    2.8198   -0.2143 C.2       1 <0>         0.0901
     25 C17         2.8141    4.0228    0.1330 C.2       1 <0>        -0.1616
     26 C18         1.9996    5.2586    0.3387 C.3       1 <0>        -0.0230
     27 S1          0.2433    4.8734    0.6191 S.3       1 <0>        -0.2422
     28 C19         4.2954    4.1644    0.3708 C.3       1 <0>        -0.0722
     29 C20         3.3817    1.7411   -0.4150 C.2       1 <0>         0.4894
     30 O3          3.0115    0.6383   -0.7658 O.co2     1 <0>        -0.6026
     31 H3         -5.0969    4.3690   -2.1035 H         1 <0>         0.0851
     32 H4         -6.6791    3.7733   -1.5465 H         1 <0>         0.0800
     33 H5         -5.2387    3.5650   -0.5218 H         1 <0>         0.0831
     34 H6         -6.4272    1.1289   -5.8624 H         1 <0>         0.1333
     35 H7         -7.2665   -0.4332   -7.5692 H         1 <0>         0.1328
     36 H8         -7.2897   -2.8531   -7.1207 H         1 <0>         0.1300
     37 H9         -6.4634   -3.7186   -4.9701 H         1 <0>         0.1345
     38 H10        -5.6123   -2.1653   -3.2612 H         1 <0>         0.1329
     39 H11        -3.8532   -1.6989   -2.1391 H         1 <0>         0.0912
     40 H12        -3.3731   -1.2640   -3.7970 H         1 <0>         0.0822
     41 H13        -2.4694   -0.6123   -2.4088 H         1 <0>         0.0963
     42 H14        -1.9454    2.5549   -2.1617 H         1 <0>         0.4081
     43 H15         2.0875    5.8926   -0.5435 H         1 <0>         0.0949
     44 H16         2.3867    5.7991    1.2025 H         1 <0>         0.1191
     45 H17         4.5199    5.1899    0.6641 H         1 <0>         0.0192
     46 H18         4.6026    3.4839    1.1649 H         1 <0>         0.0808
     47 H19         4.8352    3.9218   -0.5446 H         1 <0>         0.0867
     48 O4          4.6924    1.9782   -0.2095 O.co2     1 <0>        -0.7262
@<TRIPOS>BOND
     1    1    2 1
     2    1   31 1
     3    1   32 1
     4    1   33 1
     5    2    6 2
     6    2    3 1
     7    3    4 2
     8    3   14 1
     9    4    5 1
    10    4   13 1
    11    5    6 1
    12    5    7 1
    13    7   12 ar
    14    7    8 ar
    15    8    9 ar
    16    8   34 1
    17    9   10 ar
    18    9   35 1
    19   10   11 ar
    20   10   36 1
    21   11   12 ar
    22   11   37 1
    23   12   38 1
    24   13   39 1
    25   13   40 1
    26   13   41 1
    27   14   15 2
    28   14   16 am
    29   16   17 1
    30   16   42 1
    31   17   18 1
    32   17   22 1
    33   17   19 1
    34   19   20 1
    35   19   27 1
    36   19   21 1
    37   21   22 am
    38   21   24 1
    39   22   23 2
    40   24   25 2
    41   24   29 1
    42   25   26 1
    43   25   28 1
    44   26   27 1
    45   26   43 1
    46   26   44 1
    47   28   45 1
    48   28   46 1
    49   28   47 1
    50   29   30 2
    51   29   48 1
@<TRIPOS>MOLECULE
ZINC13224206
   55    57     0     0     0
SMALL
USER_CHARGES
(3R)-3-[[4-(azepan-1-ylsulfonyl)benzoyl]amino]-3-phenyl-propanoic acid
@<TRIPOS>ATOM
      1 C1         -0.7071   -5.1376   -3.1933 C.ar      1 <0>        -0.1293
      2 C2         -0.6516   -3.7930   -3.5094 C.ar      1 <0>        -0.1201
      3 C3         -0.7468   -2.8433   -2.5094 C.ar      1 <0>        -0.1049
      4 C4         -0.8984   -3.2382   -1.1934 C.ar      1 <0>        -0.0809
      5 C5         -0.9491   -4.5829   -0.8767 C.ar      1 <0>        -0.1087
      6 C6         -0.8583   -5.5325   -1.8772 C.ar      1 <0>        -0.1227
      7 C7         -1.0022   -2.2030   -0.1032 C.3       1 <0>         0.2029
      8 H1         -0.5940   -1.2574   -0.4601 H         1 <0>         0.0998
      9 C8         -2.4709   -2.0120    0.2806 C.3       1 <0>        -0.1650
     10 C9         -2.5886   -0.8816    1.2702 C.2       1 <0>         0.4590
     11 O1         -1.5933   -0.3429    1.6933 O.co2     1 <0>        -0.6284
     12 N1         -0.2454   -2.6503    1.0687 N.am      1 <0>        -0.6869
     13 C10         1.0742   -2.3912    1.1578 C.2       1 <0>         0.5584
     14 O2          1.6551   -1.8682    0.2269 O.2       1 <0>        -0.5335
     15 C11         1.8153   -2.7430    2.3878 C.ar      1 <0>        -0.0604
     16 C12         1.1500   -3.3382    3.4608 C.ar      1 <0>        -0.1041
     17 C13         1.8485   -3.6688    4.6037 C.ar      1 <0>        -0.0269
     18 C14         3.2031   -3.4014    4.6919 C.ar      1 <0>        -0.6657
     19 C15         3.8674   -2.8063    3.6341 C.ar      1 <0>        -0.0302
     20 C16         3.1819   -2.4760    2.4834 C.ar      1 <0>        -0.0840
     21 S1          4.0864   -3.8212    6.1576 S.o2      1 <0>         2.6867
     22 O3          3.3538   -4.8623    6.7891 O.2       1 <0>        -0.9562
     23 O4          5.4491   -3.9677    5.7827 O.2       1 <0>        -0.9528
     24 N2          4.0114   -2.5104    7.1668 N.pl3     1 <0>        -0.9869
     25 C17         5.0506   -1.5090    7.0805 C.3       1 <0>         0.1230
     26 C18         6.2138   -1.8759    8.0257 C.3       1 <0>        -0.1415
     27 C19         5.8105   -1.6880    9.4278 C.3       1 <0>        -0.1182
     28 C20         4.6601   -2.5840    9.8763 C.3       1 <0>        -0.1182
     29 C21         3.3484   -1.9346    9.5100 C.3       1 <0>        -0.1249
     30 C22         2.8896   -2.4156    8.1214 C.3       1 <0>         0.1083
     31 H2         -0.6328   -5.8795   -3.9745 H         1 <0>         0.1167
     32 H3         -0.5335   -3.4844   -4.5376 H         1 <0>         0.1193
     33 H4         -0.7031   -1.7929   -2.7564 H         1 <0>         0.1225
     34 H5         -1.0631   -4.8915    0.1520 H         1 <0>         0.1162
     35 H6         -0.9020   -6.5829   -1.6302 H         1 <0>         0.1176
     36 H7         -2.8512   -2.9294    0.7300 H         1 <0>         0.0712
     37 H8         -3.0518   -1.7763   -0.6111 H         1 <0>         0.0834
     38 H9         -0.6940   -3.1329    1.7805 H         1 <0>         0.3962
     39 H10         0.0918   -3.5434    3.3949 H         1 <0>         0.1382
     40 H11         1.3359   -4.1335    5.4330 H         1 <0>         0.1444
     41 H12         4.9248   -2.6003    3.7093 H         1 <0>         0.1440
     42 H13         3.7017   -2.0121    1.6581 H         1 <0>         0.1464
     43 H14         5.4226   -1.4592    6.0571 H         1 <0>         0.0794
     44 H15         4.6443   -0.5387    7.3661 H         1 <0>         0.0841
     45 H16         7.0715   -1.2393    7.8086 H         1 <0>         0.0768
     46 H17         6.4917   -2.9178    7.8668 H         1 <0>         0.0708
     47 H18         5.5138   -0.6484    9.5662 H         1 <0>         0.0605
     48 H19         6.6731   -1.8881   10.0634 H         1 <0>         0.0569
     49 H20         4.7076   -2.7237   10.9563 H         1 <0>         0.0638
     50 H21         4.7377   -3.5517    9.3807 H         1 <0>         0.0631
     51 H22         3.4730   -0.8519    9.4945 H         1 <0>         0.0694
     52 H23         2.5955   -2.2012   10.2518 H         1 <0>         0.0770
     53 H24         2.1506   -1.7160    7.7309 H         1 <0>         0.0703
     54 H25         2.4276   -3.3976    8.2233 H         1 <0>         0.0948
     55 O5         -3.7993   -0.4731    1.6816 O.co2     1 <0>        -0.7709
@<TRIPOS>BOND
     1    1    6 ar
     2    1    2 ar
     3    1   31 1
     4    2    3 ar
     5    2   32 1
     6    3    4 ar
     7    3   33 1
     8    4    5 ar
     9    4    7 1
    10    5    6 ar
    11    5   34 1
    12    6   35 1
    13    7    8 1
    14    7    9 1
    15    7   12 1
    16    9   10 1
    17    9   36 1
    18    9   37 1
    19   10   11 2
    20   10   55 1
    21   12   13 am
    22   12   38 1
    23   13   14 2
    24   13   15 1
    25   15   20 ar
    26   15   16 ar
    27   16   17 ar
    28   16   39 1
    29   17   18 ar
    30   17   40 1
    31   18   19 ar
    32   18   21 1
    33   19   20 ar
    34   19   41 1
    35   20   42 1
    36   21   22 2
    37   21   23 2
    38   21   24 1
    39   24   30 1
    40   24   25 1
    41   25   26 1
    42   25   43 1
    43   25   44 1
    44   26   27 1
    45   26   45 1
    46   26   46 1
    47   27   28 1
    48   27   47 1
    49   27   48 1
    50   28   29 1
    51   28   49 1
    52   28   50 1
    53   29   30 1
    54   29   51 1
    55   29   52 1
    56   30   53 1
    57   30   54 1
@<TRIPOS>MOLECULE
ZINC04543683
   44    47     0     0     0
SMALL
USER_CHARGES
5-[[4-(3,4-dihydro-1H-isoquinolin-2-yl)-3-nitro-phenyl]methylene]-2-thioxo-hexahydropyrimidine-4,6-dione
@<TRIPOS>ATOM
      1 C1          1.5992   -3.5643   -2.1230 C.ar      1 <0>        -0.1195
      2 C2          1.7371   -3.9021   -0.7894 C.ar      1 <0>        -0.1242
      3 C3          1.2002   -3.0857    0.1854 C.ar      1 <0>        -0.1133
      4 C4          0.5228   -1.9268   -0.1650 C.ar      1 <0>        -0.0736
      5 C5          0.3880   -1.5893   -1.4945 C.ar      1 <0>        -0.0595
      6 C6          0.9261   -2.4113   -2.4733 C.ar      1 <0>        -0.1198
      7 C7         -0.3343   -0.3381   -1.9239 C.3       1 <0>        -0.0765
      8 C8         -1.1893    0.1922   -0.7727 C.3       1 <0>         0.0560
      9 N1         -0.3500    0.2742    0.4334 N.pl3     1 <0>        -0.4886
     10 C9         -0.0491   -1.0707    0.9344 C.3       1 <0>         0.0993
     11 C10        -0.9608    1.0448    1.4130 C.ar      1 <0>         0.1708
     12 C11        -2.1616    0.6215    1.9815 C.ar      1 <0>        -0.1626
     13 C12        -2.7662    1.3751    2.9447 C.ar      1 <0>         0.0389
     14 C13        -2.1767    2.5788    3.3638 C.ar      1 <0>        -0.0753
     15 C14        -0.9674    3.0000    2.7883 C.ar      1 <0>        -0.0304
     16 C15        -0.3687    2.2361    1.8290 C.ar      1 <0>        -0.0369
     17 N2          0.9090    2.6763    1.2250 N.pl3     1 <0>         0.0333
     18 O1          1.3757    3.7640    1.5125 O.2       1 <0>        -0.2044
     19 O2          1.4936    1.9508    0.4405 O.3       1 <0>        -0.1043
     20 C16        -2.8197    3.3900    4.3957 C.2       1 <0>         0.0461
     21 C17        -4.1793    3.6323    4.3370 C.2       1 <0>        -0.2643
     22 C18        -4.9736    3.2839    3.1426 C.2       1 <0>         0.5271
     23 O3         -4.4501    2.7713    2.1715 O.3       1 <0>        -0.5138
     24 N3         -6.2970    3.5449    3.1595 N.2       1 <0>        -0.6254
     25 C19        -6.8858    4.1145    4.2203 C.2       1 <0>         0.5526
     26 S1         -8.5697    4.4145    4.1477 S.2       1 <0>        -0.6923
     27 N4         -6.2274    4.4623    5.3347 N.am      1 <0>        -0.6630
     28 C20        -4.9004    4.2566    5.4636 C.2       1 <0>         0.5607
     29 O4         -4.3143    4.5764    6.4805 O.2       1 <0>        -0.5186
     30 H1          2.0174   -4.2009   -2.8887 H         1 <0>         0.1203
     31 H2          2.2635   -4.8031   -0.5110 H         1 <0>         0.1207
     32 H3          1.3084   -3.3503    1.2268 H         1 <0>         0.1205
     33 H4          0.8186   -2.1475   -3.5150 H         1 <0>         0.1216
     34 H5          0.4000    0.4284   -2.2127 H         1 <0>         0.0932
     35 H6         -0.9835   -0.5657   -2.7822 H         1 <0>         0.0832
     36 H7         -1.5738    1.1899   -1.0309 H         1 <0>         0.0846
     37 H8         -2.0328   -0.4917   -0.5972 H         1 <0>         0.0506
     38 H9         -0.9762   -1.5279    1.3104 H         1 <0>         0.0571
     39 H10         0.6797   -0.9919    1.7546 H         1 <0>         0.0915
     40 H11        -2.6140   -0.3044    1.6585 H         1 <0>         0.1433
     41 H12        -3.6966    1.0467    3.3839 H         1 <0>         0.1388
     42 H13        -0.5099    3.9249    3.1070 H         1 <0>         0.1560
     43 H14        -2.2216    3.8077    5.2190 H         1 <0>         0.1552
     44 H15        -6.7695    4.9272    6.1714 H         1 <0>         0.4449
@<TRIPOS>BOND
     1    1    6 ar
     2    1    2 ar
     3    1   30 1
     4    2    3 ar
     5    2   31 1
     6    3    4 ar
     7    3   32 1
     8    4   10 1
     9    4    5 ar
    10    5    6 ar
    11    5    7 1
    12    6   33 1
    13    7    8 1
    14    7   34 1
    15    7   35 1
    16    8    9 1
    17    8   36 1
    18    8   37 1
    19    9   10 1
    20    9   11 1
    21   10   38 1
    22   10   39 1
    23   11   16 ar
    24   11   12 ar
    25   12   13 ar
    26   12   40 1
    27   13   14 ar
    28   13   41 1
    29   14   15 ar
    30   14   20 1
    31   15   16 ar
    32   15   42 1
    33   16   17 1
    34   17   18 2
    35   17   19 1
    36   20   21 2
    37   20   43 1
    38   21   28 1
    39   21   22 1
    40   22   23 1
    41   22   24 2
    42   24   25 1
    43   25   26 2
    44   25   27 1
    45   27   28 am
    46   27   44 1
    47   28   29 2
@<TRIPOS>MOLECULE
ZINC20441864
   52    55     0     0     0
SMALL
USER_CHARGES

@<TRIPOS>ATOM
      1 C1         -0.3053    1.4935    0.0348 C.3       1 <0>        -0.1085
      2 C2         -0.2184   -0.0110    0.0213 C.ar      1 <0>        -0.0900
      3 C3         -1.3704   -0.7695    0.1192 C.ar      1 <0>        -0.1125
      4 C4         -1.2942   -2.1485    0.1067 C.ar      1 <0>        -0.0885
      5 C5         -0.0590   -2.7731   -0.0044 C.ar      1 <0>         0.1601
      6 C6          1.0960   -2.0086   -0.1026 C.ar      1 <0>        -0.0852
      7 C7          1.0127   -0.6300   -0.0948 C.ar      1 <0>        -0.1122
      8 N1          0.0217   -4.1715   -0.0170 N.am      1 <0>        -0.5068
      9 C8          0.1168   -4.8418    1.1514 C.2       1 <0>         0.5729
     10 O1          0.1335   -4.2512    2.2155 O.2       1 <0>        -0.5494
     11 C9          0.1992   -6.3125    1.0953 C.2       1 <0>        -0.4065
     12 C10         0.2984   -7.0766    2.2474 C.2       1 <0>         0.3450
     13 N2          0.2939   -6.4789    3.4544 N.pl3     1 <0>        -0.5317
     14 N3          0.5058   -7.2181    4.5834 N.3       1 <0>        -0.3140
     15 C11        -0.6823   -7.2131    5.4465 C.3       1 <0>         0.0359
     16 C12        -0.4624   -8.1644    6.6249 C.3       1 <0>        -0.1136
     17 C13         0.7682   -7.7129    7.4163 C.3       1 <0>        -0.1244
     18 C14         1.9817   -7.6804    6.4830 C.3       1 <0>        -0.1037
     19 C15         1.6910   -6.7431    5.3087 C.3       1 <0>         0.1167
     20 H1          1.5077   -5.7364    5.6843 H         1 <0>         0.0614
     21 C16         2.8753   -6.7232    4.3770 C.ar      1 <0>        -0.1394
     22 C17         3.7916   -5.6836    4.4282 C.ar      1 <0>        -0.0672
     23 C18         4.8656   -5.7070    3.5520 C.ar      1 <0>        -0.1732
     24 C19         4.9867   -6.7583    2.6628 C.ar      1 <0>         0.1015
     25 N4          4.0956   -7.7300    2.6419 N.ar      1 <0>        -0.4746
     26 C20         3.0650   -7.7436    3.4647 C.ar      1 <0>         0.1255
     27 C21         0.1708   -6.9323   -0.2371 C.2       1 <0>         0.5188
     28 N5          0.0743   -6.1466   -1.2962 N.2       1 <0>        -0.5960
     29 C22        -0.0022   -4.8231   -1.1888 C.2       1 <0>         0.5474
     30 S1         -0.1311   -3.9007   -2.6253 S.2       1 <0>        -0.6844
     31 O2          0.2421   -8.2732   -0.3764 O.3       1 <0>        -0.6152
     32 H2         -0.4208    1.8599   -0.9853 H         1 <0>         0.0687
     33 H3         -1.1636    1.8025    0.6313 H         1 <0>         0.0623
     34 H4          0.6058    1.9061    0.4681 H         1 <0>         0.0622
     35 H5         -2.3308   -0.2831    0.2060 H         1 <0>         0.1217
     36 H6         -2.1942   -2.7404    0.1836 H         1 <0>         0.1168
     37 H7          2.0582   -2.4915   -0.1888 H         1 <0>         0.1165
     38 H8          1.9103   -0.0348   -0.1756 H         1 <0>         0.1216
     39 H9          0.3794   -8.1513    2.1773 H         1 <0>         0.1740
     40 H10         0.1401   -5.5236    3.5220 H         1 <0>         0.4093
     41 H11        -0.8545   -6.2042    5.8214 H         1 <0>         0.0459
     42 H12        -1.5494   -7.5400    4.8727 H         1 <0>         0.0896
     43 H13        -1.3382   -8.1485    7.2737 H         1 <0>         0.0763
     44 H14        -0.3038   -9.1760    6.2513 H         1 <0>         0.0791
     45 H15         0.5945   -6.7166    7.8228 H         1 <0>         0.0622
     46 H16         0.9541   -8.4125    8.2312 H         1 <0>         0.0727
     47 H17         2.8522   -7.3187    7.0304 H         1 <0>         0.0760
     48 H18         2.1787   -8.6844    6.1072 H         1 <0>         0.0802
     49 H19         3.6711   -4.8748    5.1337 H         1 <0>         0.1294
     50 H20         5.5983   -4.9136    3.5639 H         1 <0>         0.1340
     51 H21         5.8205   -6.7839    1.9769 H         1 <0>         0.1552
     52 H22         2.3585   -8.5594    3.4218 H         1 <0>         0.1579
@<TRIPOS>BOND
     1    1    2 1
     2    1   32 1
     3    1   33 1
     4    1   34 1
     5    2    7 ar
     6    2    3 ar
     7    3    4 ar
     8    3   35 1
     9    4    5 ar
    10    4   36 1
    11    5    6 ar
    12    5    8 1
    13    6    7 ar
    14    6   37 1
    15    7   38 1
    16    8   29 1
    17    8    9 am
    18    9   10 2
    19    9   11 1
    20   11   12 2
    21   11   27 1
    22   12   13 1
    23   12   39 1
    24   13   14 1
    25   13   40 1
    26   14   19 1
    27   14   15 1
    28   15   16 1
    29   15   41 1
    30   15   42 1
    31   16   17 1
    32   16   43 1
    33   16   44 1
    34   17   18 1
    35   17   45 1
    36   17   46 1
    37   18   19 1
    38   18   47 1
    39   18   48 1
    40   19   20 1
    41   19   21 1
    42   21   26 ar
    43   21   22 ar
    44   22   23 ar
    45   22   49 1
    46   23   24 ar
    47   23   50 1
    48   24   25 ar
    49   24   51 1
    50   25   26 ar
    51   26   52 1
    52   27   28 2
    53   27   31 1
    54   28   29 1
    55   29   30 2
@<TRIPOS>MOLECULE
ZINC59007178
   45    47     0     0     0
SMALL
USER_CHARGES

@<TRIPOS>ATOM
      1 C1         -0.0187    1.5258    0.0104 C.3       1 <0>        -0.1566
      2 C2          0.0021   -0.0041    0.0020 C.3       1 <0>         0.2374
      3 H1          0.5293   -0.3651    0.8851 H         1 <0>         0.1007
      4 C3         -1.4117   -0.5257    0.0127 C.2       1 <0>         0.1696
      5 N1         -2.2394   -0.5379   -0.9964 N.2       1 <0>        -0.2815
      6 N2         -3.3591   -1.0547   -0.6318 N.2       1 <0>        -0.2939
      7 C4         -3.2966   -1.3956    0.6265 C.2       1 <0>         0.1488
      8 N3         -2.0573   -1.0743    1.0701 N.pl3     1 <0>        -0.4717
      9 C5         -1.5245   -1.2762    2.4198 C.3       1 <0>         0.0675
     10 N4          0.6878   -0.4765   -1.2033 N.am      1 <0>        -0.7273
     11 C6          2.0310   -0.5870   -1.2149 C.2       1 <0>         0.5803
     12 O1          2.6736   -0.2945   -0.2250 O.2       1 <0>        -0.5627
     13 C7          2.7215   -1.0627   -2.4287 C.ar      1 <0>        -0.2582
     14 C8          1.9845   -1.3939   -3.5695 C.ar      1 <0>        -0.0377
     15 C9          2.6315   -1.8369   -4.7003 C.ar      1 <0>        -0.1883
     16 C10         4.0186   -1.9559   -4.7088 C.ar      1 <0>         0.3110
     17 C11         4.7553   -1.6274   -3.5741 C.ar      1 <0>        -0.2783
     18 C12         4.1146   -1.1778   -2.4423 C.ar      1 <0>         0.0065
     19 N5          4.6694   -2.4043   -5.8528 N.2       1 <0>        -1.0774
     20 S1          6.3192   -2.5466   -5.8648 S.o2      1 <0>         2.6047
     21 O2          6.8412   -1.2298   -5.7510 O.2       1 <0>        -1.0171
     22 O3          6.6447   -3.5775   -4.9426 O.2       1 <0>        -1.0168
     23 C13         6.7798   -3.1346   -7.4607 C.ar      1 <0>        -0.6025
     24 C14         6.8603   -4.4941   -7.6989 C.ar      1 <0>        -0.0041
     25 C15         7.2213   -4.9578   -8.9499 C.ar      1 <0>        -0.1500
     26 C16         7.5023   -4.0608   -9.9659 C.ar      1 <0>         0.1041
     27 C17         7.4212   -2.6975   -9.7271 C.ar      1 <0>         0.0427
     28 C18         7.0547   -2.2364   -8.4745 C.ar      1 <0>        -0.0271
     29 F1          7.6955   -1.8201  -10.7171 F         1 <0>        -0.1284
     30 F2          7.8558   -4.5133  -11.1888 F         1 <0>        -0.1270
     31 H2          1.0039    1.9031    0.0027 H         1 <0>         0.0782
     32 H3         -0.5459    1.8868   -0.8726 H         1 <0>         0.0694
     33 H4         -0.5289    1.8773    0.9072 H         1 <0>         0.0608
     34 H5         -4.0852   -1.8528    1.2057 H         1 <0>         0.2196
     35 H6         -1.7340   -0.3965    3.0284 H         1 <0>         0.0856
     36 H7         -1.9962   -2.1498    2.8697 H         1 <0>         0.0949
     37 H8         -0.4472   -1.4324    2.3656 H         1 <0>         0.0950
     38 H9          0.1751   -0.7099   -1.9930 H         1 <0>         0.4086
     39 H10         0.9084   -1.3024   -3.5632 H         1 <0>         0.1101
     40 H11         2.0627   -2.0929   -5.5819 H         1 <0>         0.1203
     41 H12         5.8312   -1.7211   -3.5837 H         1 <0>         0.1041
     42 H13         4.6871   -0.9186   -1.5640 H         1 <0>         0.1175
     43 H14         6.6411   -5.1945   -6.9066 H         1 <0>         0.1561
     44 H15         7.2845   -6.0200   -9.1345 H         1 <0>         0.1519
     45 H16         6.9875   -1.1747   -8.2883 H         1 <0>         0.1610
@<TRIPOS>BOND
     1    1    2 1
     2    1   31 1
     3    1   32 1
     4    1   33 1
     5    2    3 1
     6    2    4 1
     7    2   10 1
     8    4    8 1
     9    4    5 2
    10    5    6 1
    11    6    7 2
    12    7    8 1
    13    7   34 1
    14    8    9 1
    15    9   35 1
    16    9   36 1
    17    9   37 1
    18   10   11 am
    19   10   38 1
    20   11   12 2
    21   11   13 1
    22   13   18 ar
    23   13   14 ar
    24   14   15 ar
    25   14   39 1
    26   15   16 ar
    27   15   40 1
    28   16   17 ar
    29   16   19 1
    30   17   18 ar
    31   17   41 1
    32   18   42 1
    33   19   20 1
    34   20   21 2
    35   20   22 2
    36   20   23 1
    37   23   28 ar
    38   23   24 ar
    39   24   25 ar
    40   24   43 1
    41   25   26 ar
    42   25   44 1
    43   26   27 ar
    44   26   30 1
    45   27   28 ar
    46   27   29 1
    47   28   45 1
@<TRIPOS>MOLECULE
ZINC06678624
   36    38     0     0     0
SMALL
USER_CHARGES
4-(4,10-dimethyl-5-oxo-3-thia-6,8,9-triazabicyclo[5.3.0]deca-9,11-dien-2-yl)benzoic acid
@<TRIPOS>ATOM
      1 C1         -0.1935    0.5993   -0.1575 C.3       1 <0>        -0.1101
      2 C2         -0.7935    1.0539    1.1481 C.2       1 <0>         0.1311
      3 C3         -2.0720    1.6283    1.3099 C.2       1 <0>        -0.2378
      4 C4         -2.2415    1.8934    2.6238 C.2       1 <0>         0.3283
      5 N1         -1.0948    1.5052    3.2638 N.pl3     1 <0>        -0.5039
      6 H1         -0.9179    1.5805    4.2451 H         1 <0>         0.4448
      7 N2         -0.2159    0.9868    2.3131 N.2       1 <0>        -0.2705
      8 N3         -3.2931    2.4381    3.3212 N.am      1 <0>        -0.6234
      9 C5         -4.4524    2.9283    2.9991 C.2       1 <0>         0.5479
     10 O1         -5.0715    3.4204    3.9187 O.2       1 <0>        -0.5364
     11 C6         -5.1371    2.9812    1.6901 C.3       1 <0>        -0.0967
     12 H2         -5.8925    3.7665    1.7206 H         1 <0>         0.1535
     13 S1         -4.0152    3.3099    0.3240 S.3       1 <0>        -0.1743
     14 C7         -2.9983    1.8408    0.1538 C.3       1 <0>         0.0626
     15 H3         -3.6508    0.9725    0.0615 H         1 <0>         0.0998
     16 C8         -2.1778    1.9637   -1.1042 C.ar      1 <0>        -0.0729
     17 C9         -1.4085    3.0940   -1.3170 C.ar      1 <0>        -0.1184
     18 C10        -0.6506    3.2105   -2.4637 C.ar      1 <0>        -0.0760
     19 C11        -0.6699    2.1896   -3.4161 C.ar      1 <0>        -0.1008
     20 C12        -1.4528    1.0543   -3.1976 C.ar      1 <0>        -0.0854
     21 C13        -2.2015    0.9483   -2.0439 C.ar      1 <0>        -0.1202
     22 C14         0.1341    2.3104   -4.6495 C.2       1 <0>         0.4868
     23 O2          0.1151    1.4208   -5.4764 O.co2     1 <0>        -0.6297
     24 C15        -5.8338    1.6414    1.4440 C.3       1 <0>        -0.1482
     25 H4         -0.6627   -0.3344   -0.4674 H         1 <0>         0.0820
     26 H5          0.8777    0.4429   -0.0301 H         1 <0>         0.0703
     27 H6         -0.3615    1.3607   -0.9192 H         1 <0>         0.1156
     28 H7         -3.1321    2.4625    4.2775 H         1 <0>         0.4022
     29 H8         -1.3980    3.8848   -0.5815 H         1 <0>         0.1200
     30 H9         -0.0472    4.0913   -2.6265 H         1 <0>         0.1333
     31 H10        -1.4724    0.2612   -3.9304 H         1 <0>         0.1310
     32 H11        -2.8078    0.0709   -1.8738 H         1 <0>         0.1196
     33 H12        -6.5617    1.4598    2.2347 H         1 <0>         0.0738
     34 H13        -6.3429    1.6682    0.4805 H         1 <0>         0.0906
     35 H14        -5.0930    0.8418    1.4414 H         1 <0>         0.0632
     36 O3          0.8884    3.4070   -4.8572 O.co2     1 <0>        -0.7518
@<TRIPOS>BOND
     1    1    2 1
     2    1   25 1
     3    1   26 1
     4    1   27 1
     5    2    7 2
     6    2    3 1
     7    3   14 1
     8    3    4 2
     9    4    5 1
    10    4    8 1
    11    5    6 1
    12    5    7 1
    13    8    9 am
    14    8   28 1
    15    9   10 2
    16    9   11 1
    17   11   12 1
    18   11   13 1
    19   11   24 1
    20   13   14 1
    21   14   15 1
    22   14   16 1
    23   16   21 ar
    24   16   17 ar
    25   17   18 ar
    26   17   29 1
    27   18   19 ar
    28   18   30 1
    29   19   20 ar
    30   19   22 1
    31   20   21 ar
    32   20   31 1
    33   21   32 1
    34   22   23 2
    35   22   36 1
    36   24   33 1
    37   24   34 1
    38   24   35 1
@<TRIPOS>MOLECULE
ZINC36893417
   40    41     0     0     0
SMALL
USER_CHARGES

@<TRIPOS>ATOM
      1 C1         -0.1652    1.4012   -0.0034 C.3       1 <0>         0.1411
      2 N1         -0.1400   -0.0632   -0.0387 N.pl3     1 <0>        -0.6498
      3 C2         -0.0316   -0.7837    1.1416 C.ar      1 <0>         0.2649
      4 C3          1.2010   -1.2838    1.5445 C.ar      1 <0>        -0.1685
      5 C4          1.3061   -1.9998    2.7186 C.ar      1 <0>        -0.0280
      6 C5          0.1874   -2.2272    3.5060 C.ar      1 <0>        -0.7008
      7 C6         -1.0426   -1.7406    3.1251 C.ar      1 <0>         0.0228
      8 C7         -1.1663   -1.0071    1.9398 C.ar      1 <0>        -0.1717
      9 C8         -2.4758   -0.4794    1.5292 C.2       1 <0>         0.5204
     10 O1         -3.4501   -0.6280    2.2544 O.co2     1 <0>        -0.6912
     11 O2         -2.5913    0.1084    0.4622 O.co2     1 <0>        -0.6572
     12 S1          0.3413   -3.1448    5.0023 S.o2      1 <0>         2.7026
     13 O3         -0.9426   -3.6864    5.2805 O.2       1 <0>        -0.9660
     14 O4          1.4976   -3.9588    4.8625 O.2       1 <0>        -0.9741
     15 N2          0.6693   -2.0603    6.2101 N.pl3     1 <0>        -1.2501
     16 C9         -0.2293   -0.7666   -1.3207 C.3       1 <0>         0.1906
     17 C10         1.0120   -0.4570   -2.1599 C.3       1 <0>        -0.1299
     18 C11         0.9187   -1.1917   -3.4987 C.3       1 <0>        -0.1145
     19 C12        -0.3321   -0.7288   -4.2484 C.3       1 <0>        -0.1182
     20 C13        -1.5735   -1.0384   -3.4092 C.3       1 <0>        -0.1192
     21 C14        -1.4802   -0.3037   -2.0704 C.3       1 <0>        -0.1301
     22 H1          0.8527    1.7839   -0.0767 H         1 <0>         0.0148
     23 H2         -0.7550    1.7747   -0.8405 H         1 <0>         0.0579
     24 H3         -0.6121    1.7344    0.9333 H         1 <0>         0.0480
     25 H4          2.0774   -1.1118    0.9373 H         1 <0>         0.1239
     26 H5          2.2663   -2.3865    3.0267 H         1 <0>         0.1319
     27 H6         -1.9104   -1.9216    3.7420 H         1 <0>         0.1435
     28 H7          0.3758   -2.2408    7.1169 H         1 <0>         0.4172
     29 H8          1.1549   -1.2446    6.0108 H         1 <0>         0.4159
     30 H9         -0.2890   -1.8403   -1.1426 H         1 <0>         0.0619
     31 H10         1.0716    0.6167   -2.3379 H         1 <0>         0.0600
     32 H11         1.9031   -0.7868   -1.6258 H         1 <0>         0.0555
     33 H12         1.8031   -0.9711   -4.0965 H         1 <0>         0.0557
     34 H13         0.8591   -2.2654   -3.3206 H         1 <0>         0.0584
     35 H14        -0.2725    0.3449   -4.4265 H         1 <0>         0.0581
     36 H15        -0.3986   -1.2521   -5.2022 H         1 <0>         0.0534
     37 H16        -2.4646   -0.7086   -3.9433 H         1 <0>         0.0569
     38 H17        -1.6331   -2.1120   -3.2311 H         1 <0>         0.0553
     39 H18        -2.3645   -0.5243   -1.4725 H         1 <0>         0.1028
     40 H19        -1.4205    0.7700   -2.2485 H         1 <0>         0.0556
@<TRIPOS>BOND
     1    1    2 1
     2    1   22 1
     3    1   23 1
     4    1   24 1
     5    2    3 1
     6    2   16 1
     7    3    8 ar
     8    3    4 ar
     9    4    5 ar
    10    4   25 1
    11    5    6 ar
    12    5   26 1
    13    6    7 ar
    14    6   12 1
    15    7    8 ar
    16    7   27 1
    17    8    9 1
    18    9   10 2
    19    9   11 1
    20   12   13 2
    21   12   14 2
    22   12   15 1
    23   15   28 1
    24   15   29 1
    25   16   21 1
    26   16   17 1
    27   16   30 1
    28   17   18 1
    29   17   31 1
    30   17   32 1
    31   18   19 1
    32   18   33 1
    33   18   34 1
    34   19   20 1
    35   19   35 1
    36   19   36 1
    37   20   21 1
    38   20   37 1
    39   20   38 1
    40   21   39 1
    41   21   40 1
@<TRIPOS>MOLECULE
ZINC43219058
   37    40     0     0     0
SMALL
USER_CHARGES

@<TRIPOS>ATOM
      1 C1         -0.0167    1.3781    0.0096 C.ar      1 <0>        -0.1189
      2 C2          1.1709    2.0855    0.0021 C.ar      1 <0>        -0.1082
      3 C3          2.3773    1.4107   -0.0130 C.ar      1 <0>        -0.1353
      4 C4          2.3960    0.0285   -0.0201 C.ar      1 <0>        -0.0676
      5 C5          1.2084   -0.6789   -0.0117 C.ar      1 <0>        -0.0812
      6 C6          0.0021   -0.0041    0.0020 C.ar      1 <0>        -0.1083
      7 C7          3.7112   -0.7071   -0.0376 C.3       1 <0>         0.0433
      8 C8          3.5813   -2.0211   -0.8353 C.3       1 <0>        -0.1701
      9 H1          2.5725   -2.4332   -0.8104 H         1 <0>         0.1337
     10 C9          4.0583   -1.6644   -2.2703 C.3       1 <0>        -0.1618
     11 H2          3.3148   -1.8903   -3.0346 H         1 <0>         0.1329
     12 C10         4.4126   -0.1642   -2.2071 C.3       1 <0>         0.1489
     13 H3          3.5658    0.4401   -2.5325 H         1 <0>         0.1539
     14 N1          4.7347    0.0804   -0.7708 N.4       1 <0>        -0.4949
     15 C11         5.6215    0.1261   -3.0588 C.2       1 <0>        -0.1984
     16 C12         5.6798    0.6520   -4.3063 C.2       1 <0>        -0.1014
     17 C13         6.9149    0.8318   -4.9014 C.2       1 <0>        -0.1468
     18 C14         8.0315    0.4762   -4.2181 C.2       1 <0>        -0.1105
     19 S1          7.3483   -0.1265   -2.6827 S.3       1 <0>         0.1885
     20 Cl1         9.6936    0.5852   -4.7069 Cl        1 <0>         0.0129
     21 C15         5.3216   -2.4829   -2.4206 C.2       1 <0>         0.4556
     22 O1          6.1004   -2.5059   -3.5129 O.3       1 <0>        -0.6207
     23 N2          5.5393   -3.1602   -1.3338 N.2       1 <0>        -0.6808
     24 C16         4.6298   -3.0006   -0.3526 C.2       1 <0>         0.5026
     25 O2          4.6412   -3.5413    0.7344 O.2       1 <0>        -0.4619
     26 C17         4.1732   -0.9877    1.3691 C.2       1 <0>         0.5163
     27 O3          3.4883   -1.6714    2.1108 O.co2     1 <0>        -0.6053
     28 O4          5.2319   -0.5311    1.7656 O.co2     1 <0>        -0.6742
     29 H4         -0.9591    1.9053    0.0259 H         1 <0>         0.1246
     30 H5          1.1563    3.1654    0.0076 H         1 <0>         0.1263
     31 H6          3.3051    1.9634   -0.0196 H         1 <0>         0.1137
     32 H7          1.2231   -1.7588   -0.0176 H         1 <0>         0.1350
     33 H8         -0.9258   -0.5567    0.0082 H         1 <0>         0.1285
     34 H9          4.6452    1.0622   -0.5562 H         1 <0>         0.4158
     35 H10         4.7749    0.9263   -4.8282 H         1 <0>         0.1401
     36 H11         6.9894    1.2486   -5.8950 H         1 <0>         0.1413
     37 H12         5.6615   -0.2487   -0.5455 H         1 <0>         0.4323
@<TRIPOS>BOND
     1    1    6 ar
     2    1    2 ar
     3    1   29 1
     4    2    3 ar
     5    2   30 1
     6    3    4 ar
     7    3   31 1
     8    4    5 ar
     9    4    7 1
    10    5    6 ar
    11    5   32 1
    12    6   33 1
    13    7   14 1
    14    7    8 1
    15    7   26 1
    16    8    9 1
    17    8   24 1
    18    8   10 1
    19   10   11 1
    20   10   12 1
    21   10   21 1
    22   12   13 1
    23   12   14 1
    24   12   15 1
    25   14   34 1
    26   14   37 1
    27   15   19 1
    28   15   16 2
    29   16   17 1
    30   16   35 1
    31   17   18 2
    32   17   36 1
    33   18   19 1
    34   18   20 1
    35   21   22 1
    36   21   23 2
    37   23   24 1
    38   24   25 2
    39   26   27 2
    40   26   28 1
@<TRIPOS>MOLECULE
ZINC51635761
   29    30     0     0     0
SMALL
USER_CHARGES

@<TRIPOS>ATOM
      1 C1         -0.0168    1.3859    0.0097 C.ar      1 <0>        -0.2119
      2 C2          1.1671    2.0987    0.0022 C.ar      1 <0>        -0.0905
      3 C3          2.3791    1.4340   -0.0134 C.ar      1 <0>         0.0304
      4 C4          2.4081    0.0354   -0.0212 C.ar      1 <0>        -0.0254
      5 C5          1.2105   -0.6819   -0.0132 C.ar      1 <0>        -0.1044
      6 C6          0.0021   -0.0041    0.0020 C.ar      1 <0>         0.2699
      7 N1         -1.1998   -0.7190    0.0101 N.2       1 <0>        -1.0848
      8 S1         -2.6445    0.0902    0.0289 S.o2      1 <0>         2.6102
      9 O1         -2.7172    0.7625    1.2786 O.2       1 <0>        -1.0237
     10 O2         -2.7420    0.7759   -1.2119 O.2       1 <0>        -1.0287
     11 C7         -3.9215   -1.1238    0.0350 C.ar      1 <0>        -0.6904
     12 C8         -4.7636   -1.2358    1.1243 C.ar      1 <0>         0.0306
     13 C9         -5.7669   -2.1885    1.1296 C.ar      1 <0>        -0.1206
     14 C10        -5.9295   -3.0320    0.0445 C.ar      1 <0>        -0.0224
     15 C11        -5.0904   -2.9248   -1.0469 C.ar      1 <0>        -0.2121
     16 C12        -4.0861   -1.9651   -1.0576 C.ar      1 <0>         0.3213
     17 N2         -3.2393   -1.8502   -2.1633 N.pl3     1 <0>        -0.8538
     18 Cl1        -6.8233   -2.3265    2.5002 Cl        1 <0>        -0.0843
     19 C13         3.6611   -0.6576   -0.0379 C.1       1 <0>         0.2750
     20 N3          4.6551   -1.2074   -0.0511 N.1       1 <0>        -0.4401
     21 F1          3.5344    2.1343   -0.0216 F         1 <0>        -0.1510
     22 H1         -0.9605    1.9108    0.0260 H         1 <0>         0.1144
     23 H2          1.1454    3.1785    0.0082 H         1 <0>         0.1289
     24 H3          1.2259   -1.7617   -0.0195 H         1 <0>         0.1345
     25 H4         -4.6385   -0.5793    1.9727 H         1 <0>         0.1467
     26 H5         -6.7133   -3.7751    0.0514 H         1 <0>         0.1332
     27 H6         -5.2175   -3.5836   -1.8932 H         1 <0>         0.1332
     28 H7         -2.5358   -1.1823   -2.1681 H         1 <0>         0.4148
     29 H8         -3.3550   -2.4382   -2.9260 H         1 <0>         0.4011
@<TRIPOS>BOND
     1    1    6 ar
     2    1    2 ar
     3    1   22 1
     4    2    3 ar
     5    2   23 1
     6    3    4 ar
     7    3   21 1
     8    4    5 ar
     9    4   19 1
    10    5    6 ar
    11    5   24 1
    12    6    7 1
    13    7    8 1
    14    8    9 2
    15    8   10 2
    16    8   11 1
    17   11   16 ar
    18   11   12 ar
    19   12   13 ar
    20   12   25 1
    21   13   14 ar
    22   13   18 1
    23   14   15 ar
    24   14   26 1
    25   15   16 ar
    26   15   27 1
    27   16   17 1
    28   17   28 1
    29   17   29 1
    30   19   20 3
@<TRIPOS>MOLECULE
ZINC62827971
   32    33     0     0     0
SMALL
USER_CHARGES

@<TRIPOS>ATOM
      1 C1          0.0801    1.5009    0.0035 C.3       1 <0>        -0.0992
      2 C2          0.0816   -0.0061   -0.0033 C.2       1 <0>        -0.0453
      3 C3          0.0824   -0.7146   -1.1459 C.2       1 <0>        -0.2596
      4 S1          0.0847   -2.4027   -0.5839 S.3       1 <0>         0.2008
      5 C4          0.0847   -2.1630    1.0766 C.2       1 <0>         0.0560
      6 C5          0.0886   -0.7796    1.2192 C.2       1 <0>        -0.2331
      7 C6          0.0943   -0.1606    2.4943 C.2       1 <0>         0.5390
      8 O1          0.0934    1.0614    2.5820 O.co2     1 <0>        -0.6803
      9 O2          0.1001   -0.8475    3.5087 O.co2     1 <0>        -0.7077
     10 N1          0.0862   -3.1218    2.0752 N.am      1 <0>        -0.6022
     11 C7          0.0884   -4.4305    1.7529 C.2       1 <0>         0.6972
     12 O3          0.0891   -4.7689    0.5851 O.2       1 <0>        -0.5548
     13 N2          0.0898   -5.3639    2.7250 N.am      1 <0>        -0.6732
     14 C8          0.0019   -6.7212    2.3925 C.ar      1 <0>         0.1450
     15 C9          0.5930   -7.2027    1.2279 C.ar      1 <0>        -0.0672
     16 C10         0.4790   -8.5536    0.9415 C.ar      1 <0>        -0.1467
     17 C11        -0.2121   -9.3732    1.8139 C.ar      1 <0>         0.0927
     18 N3         -0.7614   -8.8868    2.9099 N.ar      1 <0>        -0.4587
     19 C12        -0.6719   -7.6087    3.2233 C.ar      1 <0>         0.1426
     20 Cl1        -1.4089   -7.0281    4.6840 Cl        1 <0>        -0.0260
     21 C13         0.0814   -0.2019   -2.5630 C.3       1 <0>        -0.0503
     22 H1          1.1074    1.8653   -0.0000 H         1 <0>         0.0580
     23 H2         -0.4385    1.8677   -0.8823 H         1 <0>         0.0431
     24 H3         -0.4296    1.8597    0.8976 H         1 <0>         0.1059
     25 H4          0.0857   -2.8518    3.0068 H         1 <0>         0.4335
     26 H5          0.1517   -5.0955    3.6551 H         1 <0>         0.4169
     27 H6          1.1271   -6.5395    0.5636 H         1 <0>         0.1651
     28 H7          0.9249   -8.9616    0.0465 H         1 <0>         0.1469
     29 H8         -0.3040  -10.4268    1.5948 H         1 <0>         0.1665
     30 H9          1.1088   -0.0769   -2.9048 H         1 <0>         0.0638
     31 H10        -0.4316   -0.9158   -3.2073 H         1 <0>         0.0609
     32 H11        -0.4337    0.7580   -2.6017 H         1 <0>         0.0703
@<TRIPOS>BOND
     1    1    2 1
     2    1   22 1
     3    1   23 1
     4    1   24 1
     5    2    6 1
     6    2    3 2
     7    3    4 1
     8    3   21 1
     9    4    5 1
    10    5    6 2
    11    5   10 1
    12    6    7 1
    13    7    8 2
    14    7    9 1
    15   10   11 am
    16   10   25 1
    17   11   12 2
    18   11   13 am
    19   13   14 1
    20   13   26 1
    21   14   19 ar
    22   14   15 ar
    23   15   16 ar
    24   15   27 1
    25   16   17 ar
    26   16   28 1
    27   17   18 ar
    28   17   29 1
    29   18   19 ar
    30   19   20 1
    31   21   30 1
    32   21   31 1
    33   21   32 1
@<TRIPOS>MOLECULE
ZINC01721870
   24    25     0     0     0
SMALL
USER_CHARGES
bicyclo[2.2.2]octane-5,6-diol
@<TRIPOS>ATOM
      1 C1         -0.0187    1.5258    0.0104 C.3       1 <0>        -0.1133
      2 C2          0.0021   -0.0041    0.0020 C.3       1 <0>        -0.1131
      3 C3          1.4513   -0.4944   -0.0145 C.3       1 <0>        -0.0771
      4 C4          2.1775    0.0187    1.2307 C.3       1 <0>        -0.1133
      5 C5          2.1567    1.5485    1.2391 C.3       1 <0>        -0.1131
      6 C6          1.4167    2.0553   -0.0004 C.3       1 <0>        -0.0771
      7 C7          2.1328    1.5619   -1.2592 C.3       1 <0>         0.0786
      8 H1          1.6057    1.9230   -2.1423 H         1 <0>         0.0633
      9 C8          2.1536    0.0321   -1.2676 C.3       1 <0>         0.0786
     10 H2          3.1860   -0.3172   -1.2794 H         1 <0>         0.0632
     11 O1          1.4754   -0.4471   -2.4306 O.3       1 <0>        -0.5620
     12 O2          3.4735    2.0566   -1.2694 O.3       1 <0>        -0.5620
     13 H3         -0.5459    1.8868   -0.8726 H         1 <0>         0.0640
     14 H4         -0.5289    1.8773    0.9072 H         1 <0>         0.0698
     15 H5         -0.4983   -0.3791    0.8948 H         1 <0>         0.0640
     16 H6         -0.5153   -0.3696   -0.8850 H         1 <0>         0.0714
     17 H7          1.4661   -1.5843   -0.0204 H         1 <0>         0.0779
     18 H8          1.6771   -0.3564    2.1235 H         1 <0>         0.0698
     19 H9          3.2099   -0.3306    1.2189 H         1 <0>         0.0640
     20 H10         1.6465    1.9000    2.1359 H         1 <0>         0.0640
     21 H11         3.1793    1.9258    1.2314 H         1 <0>         0.0714
     22 H12         1.4019    3.1452    0.0056 H         1 <0>         0.0779
     23 H13         1.8670   -0.1518   -3.2640 H         1 <0>         0.3765
     24 H14         3.9880    1.7824   -2.0409 H         1 <0>         0.3765
@<TRIPOS>BOND
     1    1    6 1
     2    1    2 1
     3    1   13 1
     4    1   14 1
     5    2    3 1
     6    2   15 1
     7    2   16 1
     8    3    9 1
     9    3    4 1
    10    3   17 1
    11    4    5 1
    12    4   18 1
    13    4   19 1
    14    5    6 1
    15    5   20 1
    16    5   21 1
    17    6    7 1
    18    6   22 1
    19    7    8 1
    20    7    9 1
    21    7   12 1
    22    9   10 1
    23    9   11 1
    24   11   23 1
    25   12   24 1
@<TRIPOS>MOLECULE
ZINC05377043
   13    13     0     0     0
SMALL
USER_CHARGES
(4S)-isoxazolidin-4-ol
@<TRIPOS>ATOM
      1 C1         -1.4363   -0.5627    0.0128 C.3       1 <0>         0.0069
      2 C2          0.0021   -0.0041    0.0020 C.3       1 <0>         0.0748
      3 H1          0.5634   -0.3811    0.8569 H         1 <0>         0.0762
      4 C3          0.6084   -0.5283   -1.3188 C.3       1 <0>         0.0145
      5 O1         -0.1854   -1.6971   -1.6273 O.3       1 <0>        -0.2406
      6 N1         -1.5646   -1.3206   -1.2545 N.3       1 <0>        -0.4854
      7 O2         -0.0173    1.4248    0.0099 O.3       1 <0>        -0.5547
      8 H2         -1.5786   -1.2255    0.8663 H         1 <0>         0.0679
      9 H3         -2.1589    0.2528    0.0428 H         1 <0>         0.1154
     10 H4          0.5116    0.2184   -2.1069 H         1 <0>         0.0800
     11 H5          1.6538   -0.8027   -1.1772 H         1 <0>         0.1012
     12 H6         -2.1416   -2.1388   -1.1297 H         1 <0>         0.3580
     13 H7          0.8606    1.8301    0.0037 H         1 <0>         0.3858
@<TRIPOS>BOND
     1    1    6 1
     2    1    2 1
     3    1    8 1
     4    1    9 1
     5    2    3 1
     6    2    4 1
     7    2    7 1
     8    4    5 1
     9    4   10 1
    10    4   11 1
    11    5    6 1
    12    6   12 1
    13    7   13 1
@<TRIPOS>MOLECULE
ZINC34545548
   22    21     0     0     0
SMALL
USER_CHARGES

@<TRIPOS>ATOM
      1 C1         -0.0187    1.5258    0.0104 C.3       1 <0>        -0.1453
      2 C2          0.0021   -0.0041    0.0020 C.3       1 <0>        -0.0862
      3 H1          0.5123   -0.3556   -0.8948 H         1 <0>         0.0793
      4 C3          0.7421   -0.5109    1.2415 C.3       1 <0>         0.0739
      5 O1          2.1131   -0.1139    1.1734 O.3       1 <0>        -0.5726
      6 C4         -1.4333   -0.5336    0.0129 C.3       1 <0>        -0.0862
      7 H2         -1.9435   -0.1821    0.9097 H         1 <0>         0.0793
      8 C5         -2.1733   -0.0268   -1.2266 C.3       1 <0>        -0.1453
      9 C6         -1.4126   -2.0635    0.0045 C.3       1 <0>         0.0739
     10 O2         -2.7469   -2.5587    0.1320 O.3       1 <0>        -0.5725
     11 H3          1.0039    1.9031    0.0027 H         1 <0>         0.0638
     12 H4         -0.5459    1.8868   -0.8726 H         1 <0>         0.0597
     13 H5         -0.5289    1.8773    0.9072 H         1 <0>         0.0534
     14 H6          0.2852   -0.0874    2.1360 H         1 <0>         0.0469
     15 H7          0.6803   -1.5984    1.2822 H         1 <0>         0.0470
     16 H8          2.6440   -0.4017    1.9286 H         1 <0>         0.3803
     17 H9         -3.1959   -0.4041   -1.2189 H         1 <0>         0.0638
     18 H10        -2.1881    1.0631   -1.2207 H         1 <0>         0.0597
     19 H11        -1.6631   -0.3783   -2.1234 H         1 <0>         0.0534
     20 H12        -0.9823   -2.4159   -0.9330 H         1 <0>         0.0468
     21 H13        -0.8102   -2.4233    0.8386 H         1 <0>         0.0470
     22 H14        -2.8099   -3.5236    0.1340 H         1 <0>         0.3803
@<TRIPOS>BOND
     1    1    2 1
     2    1   11 1
     3    1   12 1
     4    1   13 1
     5    2    3 1
     6    2    4 1
     7    2    6 1
     8    4    5 1
     9    4   14 1
    10    4   15 1
    11    5   16 1
    12    6    7 1
    13    6    8 1
    14    6    9 1
    15    8   17 1
    16    8   18 1
    17    8   19 1
    18    9   10 1
    19    9   20 1
    20    9   21 1
    21   10   22 1
@<TRIPOS>MOLECULE
ZINC39134539
   13    13     0     0     0
SMALL
USER_CHARGES

@<TRIPOS>ATOM
      1 C1         -0.0176    1.4433    0.0100 C.3       1 <0>        -0.0206
      2 C2          1.3660    2.0574    0.0001 C.2       1 <0>         0.3333
      3 O1          1.6754    3.2301    0.0034 O.2       1 <0>        -0.3822
      4 S1          2.3651    0.7078   -0.0167 S.3       1 <0>        -0.0822
      5 C3          1.1563   -0.5944   -0.0122 C.2       1 <0>         0.4200
      6 N1          0.0021   -0.0041    0.0020 N.2       1 <0>        -0.5586
      7 N2          1.3955   -1.9482   -0.0226 N.pl3     1 <0>        -0.5279
      8 N3          0.3495   -2.8267   -0.0177 N.3       1 <0>        -0.5919
      9 H1         -0.5448    1.7818    0.9019 H         1 <0>         0.1344
     10 H2         -0.5617    1.7913   -0.8680 H         1 <0>         0.1365
     11 H3          2.3071   -2.2796   -0.0334 H         1 <0>         0.4243
     12 H4          0.6783   -3.7806   -0.0266 H         1 <0>         0.3652
     13 H5         -0.2582   -2.6610    0.7706 H         1 <0>         0.3496
@<TRIPOS>BOND
     1    1    6 1
     2    1    2 1
     3    1    9 1
     4    1   10 1
     5    2    3 2
     6    2    4 1
     7    4    5 1
     8    5    6 2
     9    5    7 1
    10    7    8 1
    11    7   11 1
    12    8   12 1
    13    8   13 1
@<TRIPOS>MOLECULE
ZINC54499586
   20    21     0     0     0
SMALL
USER_CHARGES

@<TRIPOS>ATOM
      1 C1         -0.0358    1.5025   -0.0117 C.3       1 <0>        -0.0608
      2 C2         -0.0059   -0.0042   -0.0073 C.2       1 <0>         0.1647
      3 N1         -0.1860   -0.7831   -1.0362 N.2       1 <0>        -0.2736
      4 N2         -0.0939   -2.0142   -0.6785 N.2       1 <0>        -0.3484
      5 C3          0.1518   -2.0873    0.6084 C.2       1 <0>         0.4485
      6 N3          0.2211   -0.8072    1.0759 N.pl3     1 <0>        -0.4806
      7 C4          0.4815   -0.3815    2.4533 C.3       1 <0>         0.0456
      8 C5          1.5234    0.7181    2.6679 C.3       1 <0>        -0.1596
      9 C6          1.8458   -0.7269    3.0535 C.3       1 <0>        -0.1711
     10 N4          0.3156   -3.2456    1.3513 N.pl3     1 <0>        -0.8286
     11 H1          0.9655    1.8852   -0.2096 H         1 <0>         0.0813
     12 H2         -0.7176    1.8501   -0.7877 H         1 <0>         0.0934
     13 H3         -0.3767    1.8619    0.9593 H         1 <0>         0.0761
     14 H4         -0.3802   -0.3960    3.1207 H         1 <0>         0.1365
     15 H5          2.0151    1.1249    1.7842 H         1 <0>         0.1074
     16 H6          1.3472    1.4275    3.4765 H         1 <0>         0.1177
     17 H7          1.8817   -0.9683    4.1159 H         1 <0>         0.1164
     18 H8          2.5496   -1.2709    2.4236 H         1 <0>         0.1035
     19 H9          0.3295   -4.1082    0.9079 H         1 <0>         0.4239
     20 H10         0.4163   -3.1937    2.3147 H         1 <0>         0.4078
@<TRIPOS>BOND
     1    1    2 1
     2    1   11 1
     3    1   12 1
     4    1   13 1
     5    2    6 1
     6    2    3 2
     7    3    4 1
     8    4    5 2
     9    5    6 1
    10    5   10 1
    11    6    7 1
    12    7    9 1
    13    7    8 1
    14    7   14 1
    15    8    9 1
    16    8   15 1
    17    8   16 1
    18    9   17 1
    19    9   18 1
    20   10   19 1
    21   10   20 1
@<TRIPOS>MOLECULE
ZINC00091296
   25    25     0     0     0
SMALL
USER_CHARGES
4-chloro-2,5-dimethyl-benzenesulfonohydrazide
@<TRIPOS>ATOM
      1 C1         -1.8181   -2.0098    5.5304 C.3       1 <0>        -0.1216
      2 C2         -1.1034   -0.9743    4.7009 C.ar      1 <0>        -0.1068
      3 C3         -0.5433   -1.3270    3.4873 C.ar      1 <0>        -0.0068
      4 C4          0.1118   -0.3772    2.7262 C.ar      1 <0>        -0.6689
      5 C5          0.2123    0.9247    3.1807 C.ar      1 <0>         0.0458
      6 C6         -0.3522    1.2797    4.3912 C.ar      1 <0>        -0.1353
      7 C7         -1.0082    0.3293    5.1536 C.ar      1 <0>         0.0212
      8 Cl1        -1.7109    0.7728    6.6778 Cl        1 <0>        -0.0524
      9 C8          0.9321    1.9582    2.3532 C.3       1 <0>        -0.1781
     10 S1          0.8256   -0.8275    1.1794 S.o2      1 <0>         2.7180
     11 O1          0.5400   -2.2060    0.9863 O.2       1 <0>        -0.9505
     12 O2          2.1517   -0.3170    1.1801 O.2       1 <0>        -0.9505
     13 N1          0.0021   -0.0041    0.0020 N.pl3     1 <0>        -0.9685
     14 N2         -0.0164    1.3618    0.0095 N.3       1 <0>        -0.5932
     15 H1         -1.1079   -2.4889    6.2043 H         1 <0>         0.0792
     16 H2         -2.6043   -1.5295    6.1127 H         1 <0>         0.0762
     17 H3         -2.2590   -2.7601    4.8740 H         1 <0>         0.0760
     18 H4         -0.6179   -2.3447    3.1336 H         1 <0>         0.1519
     19 H5         -0.2778    2.2977    4.7439 H         1 <0>         0.1433
     20 H6          0.2245    2.4410    1.6791 H         1 <0>         0.1192
     21 H7          1.3754    2.7058    3.0109 H         1 <0>         0.0802
     22 H8          1.7169    1.4752    1.7710 H         1 <0>         0.0978
     23 H9         -0.4671   -0.4917   -0.6930 H         1 <0>         0.4164
     24 H10         0.9205    1.7362    0.0026 H         1 <0>         0.3459
     25 H11        -0.5549    1.7204   -0.7648 H         1 <0>         0.3615
@<TRIPOS>BOND
     1    1    2 1
     2    1   15 1
     3    1   16 1
     4    1   17 1
     5    2    7 ar
     6    2    3 ar
     7    3    4 ar
     8    3   18 1
     9    4    5 ar
    10    4   10 1
    11    5    6 ar
    12    5    9 1
    13    6    7 ar
    14    6   19 1
    15    7    8 1
    16    9   20 1
    17    9   21 1
    18    9   22 1
    19   10   11 2
    20   10   12 2
    21   10   13 1
    22   13   14 1
    23   13   23 1
    24   14   24 1
    25   14   25 1
@<TRIPOS>MOLECULE
ZINC04405264
   25    26     0     0     0
SMALL
USER_CHARGES

@<TRIPOS>ATOM
      1 C1         -0.0167    1.3781    0.0096 C.2       1 <0>        -0.1489
      2 C2          1.1597    2.0514    0.0020 C.2       1 <0>        -0.1678
      3 S1          2.3478    0.7191   -0.0165 S.3       1 <0>         0.0517
      4 C3          1.1962   -0.6452   -0.0128 C.2       1 <0>        -0.1656
      5 C4          0.0021   -0.0041    0.0020 C.2       1 <0>        -0.1319
      6 C5         -1.2859   -0.7864    0.0106 C.3       1 <0>         0.0621
      7 H1         -2.1181   -0.0826    0.0226 H         1 <0>         0.1134
      8 C6         -1.3380   -1.6205    1.2838 C.3       1 <0>         0.0081
      9 H2         -1.4056   -0.9618    2.1496 H         1 <0>         0.1453
     10 C7         -2.5619   -2.5189    1.2306 C.2       1 <0>         0.1738
     11 N1         -3.5304   -2.4123    2.0811 N.2       1 <0>        -0.5836
     12 S2         -2.5791   -3.7225   -0.0714 S.3       1 <0>         0.1058
     13 C8         -1.8982   -2.8060   -1.4185 C.2       1 <0>         0.2249
     14 C9         -1.3615   -1.5872   -1.2396 C.2       1 <0>        -0.2079
     15 C10        -0.7925   -0.9808   -2.4055 C.1       1 <0>         0.2602
     16 N2         -0.3412   -0.4998   -3.3304 N.1       1 <0>        -0.4330
     17 N3         -1.9154   -3.3540   -2.6790 N.pl3     1 <0>        -0.8249
     18 C11        -0.1220   -2.4440    1.3843 C.1       1 <0>         0.2121
     19 N4          0.8164   -3.0795    1.4618 N.1       1 <0>        -0.3916
     20 H3         -0.9545    1.9134    0.0259 H         1 <0>         0.1389
     21 H4          1.3332    3.1174    0.0058 H         1 <0>         0.1882
     22 H5          1.3986   -1.7060   -0.0210 H         1 <0>         0.1865
     23 H6         -3.4894   -1.7423    2.7814 H         1 <0>         0.3610
     24 H7         -2.2984   -4.2339   -2.8201 H         1 <0>         0.4123
     25 H8         -1.5445   -2.8607   -3.4274 H         1 <0>         0.4110
@<TRIPOS>BOND
     1    1    5 1
     2    1    2 2
     3    1   20 1
     4    2    3 1
     5    2   21 1
     6    3    4 1
     7    4    5 2
     8    4   22 1
     9    5    6 1
    10    6    7 1
    11    6   14 1
    12    6    8 1
    13    8    9 1
    14    8   10 1
    15    8   18 1
    16   10   11 2
    17   10   12 1
    18   11   23 1
    19   12   13 1
    20   13   14 2
    21   13   17 1
    22   14   15 1
    23   15   16 3
    24   17   24 1
    25   17   25 1
    26   18   19 3
@<TRIPOS>MOLECULE
ZINC41260636
   27    28     0     0     0
SMALL
USER_CHARGES

@<TRIPOS>ATOM
      1 C1         -0.0173    1.4248    0.0099 C.3       1 <0>         0.0213
      2 O1          0.0021   -0.0041    0.0020 O.3       1 <0>        -0.3085
      3 C2          0.6252   -0.6178    1.0405 C.ar      1 <0>         0.1643
      4 C3          1.2016    0.1432    2.0502 C.ar      1 <0>        -0.2068
      5 C4          1.8343   -0.4755    3.1058 C.ar      1 <0>        -0.0445
      6 C5          1.8961   -1.8702    3.1603 C.ar      1 <0>        -0.1344
      7 C6          1.3153   -2.6317    2.1429 C.ar      1 <0>        -0.0301
      8 C7          0.6799   -2.0053    1.0936 C.ar      1 <0>        -0.1520
      9 C8          2.5737   -2.5375    4.2894 C.2       1 <0>         0.2746
     10 C9          2.6442   -3.9037    4.3485 C.2       1 <0>        -0.2834
     11 C10         3.2973   -4.5021    5.4391 C.2       1 <0>         0.4966
     12 N1          3.8311   -3.7406    6.3868 N.2       1 <0>        -0.5535
     13 C11         3.7585   -2.4136    6.3223 C.2       1 <0>         0.5088
     14 S1          4.4620   -1.4722    7.5672 S.2       1 <0>        -0.5869
     15 N2          3.1477   -1.7977    5.2934 N.pl3     1 <0>        -0.5873
     16 H1          3.1095   -0.8289    5.2631 H         1 <0>         0.4309
     17 N3          3.3832   -5.8745    5.5251 N.pl3     1 <0>        -0.8040
     18 H2          1.0053    1.8021    0.0021 H         1 <0>         0.0616
     19 H3         -0.5445    1.7859   -0.8732 H         1 <0>         0.1074
     20 H4         -0.5275    1.7763    0.9067 H         1 <0>         0.0616
     21 H5          1.1536    1.2213    2.0072 H         1 <0>         0.1418
     22 H6          2.2823    0.1167    3.8900 H         1 <0>         0.1304
     23 H7          1.3609   -3.7101    2.1814 H         1 <0>         0.1443
     24 H8          0.2271   -2.5932    0.3089 H         1 <0>         0.1455
     25 H9          2.2051   -4.5107    3.5706 H         1 <0>         0.1644
     26 H10         2.9924   -6.4293    4.8321 H         1 <0>         0.4188
     27 H11         3.8345   -6.2860    6.2788 H         1 <0>         0.4191
@<TRIPOS>BOND
     1    1    2 1
     2    1   18 1
     3    1   19 1
     4    1   20 1
     5    2    3 1
     6    3    8 ar
     7    3    4 ar
     8    4    5 ar
     9    4   21 1
    10    5    6 ar
    11    5   22 1
    12    6    7 ar
    13    6    9 1
    14    7    8 ar
    15    7   23 1
    16    8   24 1
    17    9   15 1
    18    9   10 2
    19   10   11 1
    20   10   25 1
    21   11   12 2
    22   11   17 1
    23   12   13 1
    24   13   14 2
    25   13   15 1
    26   15   16 1
    27   17   26 1
    28   17   27 1
@<TRIPOS>MOLECULE
ZINC51730372
   40    42     0     0     0
SMALL
USER_CHARGES

@<TRIPOS>ATOM
      1 C1         -0.0187    1.5258    0.0104 C.3       1 <0>        -0.1485
      2 C2          0.0021   -0.0041    0.0020 C.3       1 <0>        -0.0891
      3 H1         -1.0206   -0.3812    0.0098 H         1 <0>         0.0707
      4 C3          0.7178   -0.4973   -1.2575 C.3       1 <0>        -0.1311
      5 C4          0.7063   -2.0291   -1.2798 C.3       1 <0>         0.1428
      6 N1          1.2851   -2.5247   -0.0236 N.pl3     1 <0>        -0.6671
      7 C5          0.7301   -2.0426    1.2485 C.3       1 <0>         0.1679
      8 H2          1.3389   -2.4093    2.0750 H         1 <0>         0.0761
      9 C6          0.7417   -0.5108    1.2423 C.3       1 <0>        -0.1244
     10 C7         -0.7056   -2.5473    1.4058 C.3       1 <0>        -0.1694
     11 C8          2.3405   -3.4352   -0.0385 C.ar      1 <0>         0.1461
     12 C9          3.6442   -2.9732   -0.0427 C.ar      1 <0>        -0.0653
     13 C10         4.7004   -3.8832   -0.0571 C.ar      1 <0>         0.0959
     14 C11         4.4251   -5.2701   -0.0672 C.ar      1 <0>        -0.1458
     15 C12         3.1057   -5.7245   -0.0627 C.ar      1 <0>        -0.1281
     16 C13         2.0708   -4.8111   -0.0431 C.ar      1 <0>         0.2017
     17 N2          0.7450   -5.2609   -0.0327 N.pl3     1 <0>        -0.8677
     18 C14         5.5624   -6.1983   -0.0828 C.2       1 <0>         0.5458
     19 O1          5.3939   -7.4043   -0.0924 O.2       1 <0>        -0.5166
     20 N3          6.8051   -5.6628   -0.0865 N.am      1 <0>        -0.6568
     21 H3          7.5797   -6.2465   -0.0967 H         1 <0>         0.4192
     22 C15         6.9782   -4.3144   -0.0765 C.2       1 <0>         0.3509
     23 N4          5.9934   -3.4690   -0.0622 N.2       1 <0>        -0.5086
     24 H4          1.0039    1.9031    0.0027 H         1 <0>         0.0538
     25 H5         -0.5459    1.8868   -0.8726 H         1 <0>         0.0536
     26 H6         -0.5289    1.8773    0.9072 H         1 <0>         0.0536
     27 H7          0.2043   -0.1168   -2.1405 H         1 <0>         0.0673
     28 H8          1.7481   -0.1413   -1.2536 H         1 <0>         0.0658
     29 H9         -0.3194   -2.3854   -1.3752 H         1 <0>         0.0496
     30 H10         1.2993   -2.3867   -2.1216 H         1 <0>         0.0688
     31 H11         1.7717   -0.1546    1.2225 H         1 <0>         0.0659
     32 H12         0.2452   -0.1397    2.1389 H         1 <0>         0.0678
     33 H13        -0.7105   -3.6373    1.3982 H         1 <0>         0.0541
     34 H14        -1.1155   -2.1887    2.3500 H         1 <0>         0.0633
     35 H15        -1.3138   -2.1755    0.5811 H         1 <0>         0.0608
     36 H16         3.8432   -1.9118   -0.0353 H         1 <0>         0.1390
     37 H17         2.8956   -6.7838   -0.0708 H         1 <0>         0.1363
     38 H18         0.0159   -4.6213   -0.0224 H         1 <0>         0.4020
     39 H19         0.5556   -6.2123   -0.0359 H         1 <0>         0.3985
     40 H20         7.9864   -3.9270   -0.0799 H         1 <0>         0.2012
@<TRIPOS>BOND
     1    1    2 1
     2    1   24 1
     3    1   25 1
     4    1   26 1
     5    2    3 1
     6    2    9 1
     7    2    4 1
     8    4    5 1
     9    4   27 1
    10    4   28 1
    11    5    6 1
    12    5   29 1
    13    5   30 1
    14    6    7 1
    15    6   11 1
    16    7    8 1
    17    7    9 1
    18    7   10 1
    19    9   31 1
    20    9   32 1
    21   10   33 1
    22   10   34 1
    23   10   35 1
    24   11   16 ar
    25   11   12 ar
    26   12   13 ar
    27   12   36 1
    28   13   23 1
    29   13   14 ar
    30   14   15 ar
    31   14   18 1
    32   15   16 ar
    33   15   37 1
    34   16   17 1
    35   17   38 1
    36   17   39 1
    37   18   19 2
    38   18   20 am
    39   20   21 1
    40   20   22 1
    41   22   23 2
    42   22   40 1
@<TRIPOS>MOLECULE
ZINC60128000
   37    39     0     0     0
SMALL
NO_CHARGES

@<TRIPOS>ATOM
      1 C1         -0.0127    1.0858    0.0080 C.3       1 <0>        -0.0832
      2 C2         -0.7416    1.5850   -1.2129 C.2       1 <0>         0.2663
      3 N1         -1.2562    0.8001   -2.1063 N.2       1 <0>        -0.5473
      4 C3         -1.8713    1.6721   -3.1232 C.3       1 <0>         0.2796
      5 C4         -1.5842    3.0659   -2.5976 C.cat     1 <0>         0.0837
      6 N2         -0.9269    2.8820   -1.4796 N.pl3     1 <0>        -0.5555
      7 N3         -1.9376    4.2505   -3.1625 N.pl3     1 <0>        -0.7905
      8 N4         -1.2373    1.4701   -4.4328 N.3       1 <0>        -0.4998
      9 C5         -1.9744    2.1962   -5.4989 C.3       1 <0>         0.0296
     10 C6         -1.5626    1.4885   -6.8077 C.3       1 <0>        -0.1141
     11 C7         -1.1252    0.0731   -6.3776 C.3       1 <0>        -0.0570
     12 H1         -0.0798   -0.0950   -6.6364 H         1 <0>         0.0859
     13 C8         -1.3095    0.0447   -4.8451 C.3       1 <0>         0.0586
     14 C9         -1.9991   -0.9661   -7.0314 C.ar      1 <0>        -0.0718
     15 C10        -3.3665   -0.9455   -6.8295 C.ar      1 <0>        -0.1147
     16 C11        -4.1680   -1.8988   -7.4293 C.ar      1 <0>        -0.1181
     17 C12        -3.6023   -2.8723   -8.2312 C.ar      1 <0>        -0.1250
     18 C13        -2.2350   -2.8923   -8.4338 C.ar      1 <0>        -0.1175
     19 C14        -1.4339   -1.9365   -7.8375 C.ar      1 <0>        -0.1161
     20 H2          0.0021   -0.0041    0.0020 H         1 <0>         0.0928
     21 H3          1.0099    1.4631    0.0003 H         1 <0>         0.0759
     22 H4         -0.5229    1.4373    0.9048 H         1 <0>         0.0750
     23 H5         -2.4310    4.2615   -3.9975 H         1 <0>         0.4120
     24 H6         -1.6964    5.0849   -2.7305 H         1 <0>         0.3957
     25 H7         -3.0498    2.1112   -5.3429 H         1 <0>         0.0410
     26 H8         -1.6744    3.2438   -5.5225 H         1 <0>         0.0768
     27 H9         -2.4105    1.4317   -7.4903 H         1 <0>         0.0722
     28 H10        -0.7319    2.0151   -7.2776 H         1 <0>         0.0736
     29 H11        -0.5089   -0.5276   -4.3765 H         1 <0>         0.0849
     30 H12        -2.2809   -0.3770   -4.5868 H         1 <0>         0.0478
     31 H13        -3.8085   -0.1850   -6.2030 H         1 <0>         0.1164
     32 H14        -5.2363   -1.8832   -7.2710 H         1 <0>         0.1205
     33 H15        -4.2285   -3.6175   -8.6992 H         1 <0>         0.1206
     34 H16        -1.7930   -3.6531   -9.0600 H         1 <0>         0.1217
     35 H17        -0.3661   -1.9498   -7.9988 H         1 <0>         0.1215
     36 H18        -2.9449    1.4942   -3.1848 H         1 <0>         0.0543
     37 H19        -0.6092    3.6024   -0.9130 H         1 <0>         0.4044
@<TRIPOS>BOND
     1    1   20 1
     2    1   21 1
     3    1   22 1
     4    1    2 1
     5    2    3 2
     6    2    6 1
     7    3    4 1
     8    4    8 1
     9    4   36 1
    10    4    5 1
    11    5    6 2
    12    5    7 1
    13    6   37 1
    14    7   23 1
    15    7   24 1
    16    8   13 1
    17    8    9 1
    18    9   10 1
    19    9   25 1
    20    9   26 1
    21   10   11 1
    22   10   27 1
    23   10   28 1
    24   11   12 1
    25   11   13 1
    26   11   14 1
    27   13   29 1
    28   13   30 1
    29   14   19 ar
    30   14   15 ar
    31   15   16 ar
    32   15   31 1
    33   16   17 ar
    34   16   32 1
    35   17   18 ar
    36   17   33 1
    37   18   19 ar
    38   18   34 1
    39   19   35 1
@<TRIPOS>MOLECULE
ZINC03840125
   65    67     0     0     0
SMALL
USER_CHARGES
N-[1-carbamoyl-2-(4-methoxyphenyl)-ethyl]-4,5-dihydroxy-3-(p-tolylcarbamoylamino)cyclohexene-1-carboxamide
@<TRIPOS>ATOM
      1 C1         -9.9938    6.7354    4.5727 C.3       1 <0>        -0.1132
      2 C2         -8.5441    6.6667    4.1669 C.ar      1 <0>        -0.1040
      3 C3         -7.5656    6.4964    5.1290 C.ar      1 <0>        -0.1007
      4 C4         -6.2361    6.4334    4.7604 C.ar      1 <0>        -0.1442
      5 C5         -5.8824    6.5413    3.4219 C.ar      1 <0>         0.1599
      6 C6         -6.8670    6.7176    2.4586 C.ar      1 <0>        -0.1151
      7 C7         -8.1952    6.7745    2.8332 C.ar      1 <0>        -0.1003
      8 N1         -4.5361    6.4784    3.0451 N.am      1 <0>        -0.6844
      9 C8         -4.1919    5.9279    1.8640 C.2       1 <0>         0.7076
     10 O1         -5.0387    5.3995    1.1698 O.2       1 <0>        -0.5669
     11 N2         -2.9089    5.9630    1.4526 N.am      1 <0>        -0.7215
     12 C9         -2.5348    5.3645    0.1688 C.3       1 <0>         0.2033
     13 H1         -3.3427    5.5122   -0.5478 H         1 <0>         0.1185
     14 C10        -2.3010    3.8929    0.3499 C.2       1 <0>        -0.0777
     15 C11        -1.1070    3.3446    0.4165 C.2       1 <0>        -0.1524
     16 C12         0.1743    4.1175    0.2996 C.3       1 <0>        -0.1200
     17 C13        -0.0866    5.6075    0.5299 C.3       1 <0>         0.0766
     18 H2         -0.3299    5.7789    1.5785 H         1 <0>         0.0671
     19 C14        -1.2640    6.0379   -0.3536 C.3       1 <0>         0.1088
     20 H3         -1.0820    5.7282   -1.3827 H         1 <0>         0.0842
     21 O2         -1.4143    7.4578   -0.2950 O.3       1 <0>        -0.5506
     22 O3          1.0771    6.3586    0.1782 O.3       1 <0>        -0.5605
     23 C15        -1.0229    1.8889    0.6107 C.2       1 <0>         0.5609
     24 O4         -2.0396    1.2289    0.7098 O.2       1 <0>        -0.5299
     25 N3          0.1809    1.2866    0.6790 N.am      1 <0>        -0.7012
     26 C16         0.2646   -0.1632    0.8724 C.3       1 <0>         0.1330
     27 H4         -0.5638   -0.6472    0.3553 H         1 <0>         0.1196
     28 C17         1.5897   -0.6775    0.3062 C.3       1 <0>        -0.0781
     29 C18         1.6113   -0.4726   -1.1866 C.ar      1 <0>        -0.1260
     30 C19         1.1393   -1.4645   -2.0263 C.ar      1 <0>        -0.0707
     31 C20         1.1528   -1.2768   -3.3949 C.ar      1 <0>        -0.2042
     32 C21         1.6510   -0.0965   -3.9271 C.ar      1 <0>         0.1305
     33 C22         2.1292    0.8949   -3.0827 C.ar      1 <0>        -0.1480
     34 C23         2.1083    0.7047   -1.7145 C.ar      1 <0>        -0.0709
     35 O5          1.6701    0.0885   -5.2733 O.3       1 <0>        -0.3169
     36 C24         1.1617   -0.9747   -6.0815 C.3       1 <0>         0.0261
     37 C25         0.1911   -0.4786    2.3442 C.2       1 <0>         0.5064
     38 O6          0.0797    0.4191    3.1520 O.2       1 <0>        -0.5293
     39 N4          0.2491   -1.7584    2.7628 N.am      1 <0>        -0.8526
     40 H5        -10.2663    7.7717    4.7728 H         1 <0>         0.0692
     41 H6        -10.6156    6.3453    3.7670 H         1 <0>         0.0657
     42 H7        -10.1480    6.1391    5.4720 H         1 <0>         0.0651
     43 H8         -7.8413    6.4129    6.1699 H         1 <0>         0.1253
     44 H9         -5.4724    6.3000    5.5123 H         1 <0>         0.1241
     45 H10        -6.5947    6.8063    1.4173 H         1 <0>         0.1357
     46 H11        -8.9617    6.9074    2.0841 H         1 <0>         0.1248
     47 H12        -3.8507    6.8311    3.6339 H         1 <0>         0.4065
     48 H13        -2.2333    6.3845    2.0065 H         1 <0>         0.4008
     49 H14        -3.1627    3.2474    0.4345 H         1 <0>         0.1405
     50 H15         0.8838    3.7557    1.0437 H         1 <0>         0.0846
     51 H16         0.5922    3.9757   -0.6971 H         1 <0>         0.0971
     52 H17        -0.6379    7.9483   -0.5979 H         1 <0>         0.3911
     53 H18         1.8646    6.1260    0.6890 H         1 <0>         0.3873
     54 H19         0.9917    1.8125    0.5960 H         1 <0>         0.4028
     55 H20         2.4157   -0.1300    0.7601 H         1 <0>         0.0864
     56 H21         1.6920   -1.7397    0.5287 H         1 <0>         0.0949
     57 H22         0.7556   -2.3850   -1.6117 H         1 <0>         0.1265
     58 H23         0.7799   -2.0501   -4.0502 H         1 <0>         0.1298
     59 H24         2.5179    1.8145   -3.4946 H         1 <0>         0.1323
     60 H25         2.4802    1.4763   -1.0568 H         1 <0>         0.1253
     61 H26         1.2349   -0.6985   -7.1334 H         1 <0>         0.1022
     62 H27         1.7443   -1.8783   -5.9017 H         1 <0>         0.0566
     63 H28         0.1181   -1.1584   -5.8259 H         1 <0>         0.0568
     64 H29         0.3382   -2.4765    2.1168 H         1 <0>         0.4016
     65 H30         0.2018   -1.9615    3.7101 H         1 <0>         0.4045
@<TRIPOS>BOND
     1    1    2 1
     2    1   40 1
     3    1   41 1
     4    1   42 1
     5    2    7 ar
     6    2    3 ar
     7    3    4 ar
     8    3   43 1
     9    4    5 ar
    10    4   44 1
    11    5    6 ar
    12    5    8 1
    13    6    7 ar
    14    6   45 1
    15    7   46 1
    16    8    9 am
    17    8   47 1
    18    9   10 2
    19    9   11 am
    20   11   12 1
    21   11   48 1
    22   12   13 1
    23   12   19 1
    24   12   14 1
    25   14   15 2
    26   14   49 1
    27   15   16 1
    28   15   23 1
    29   16   17 1
    30   16   50 1
    31   16   51 1
    32   17   18 1
    33   17   19 1
    34   17   22 1
    35   19   20 1
    36   19   21 1
    37   21   52 1
    38   22   53 1
    39   23   24 2
    40   23   25 am
    41   25   26 1
    42   25   54 1
    43   26   27 1
    44   26   28 1
    45   26   37 1
    46   28   29 1
    47   28   55 1
    48   28   56 1
    49   29   34 ar
    50   29   30 ar
    51   30   31 ar
    52   30   57 1
    53   31   32 ar
    54   31   58 1
    55   32   33 ar
    56   32   35 1
    57   33   34 ar
    58   33   59 1
    59   34   60 1
    60   35   36 1
    61   36   61 1
    62   36   62 1
    63   36   63 1
    64   37   38 2
    65   37   39 am
    66   39   64 1
    67   39   65 1
@<TRIPOS>MOLECULE
ZINC12636407
   68    71     0     0     0
SMALL
USER_CHARGES
N-[(2R,3S,4S,5R,6R)-4,5-dihydroxy-6-(hydroxymethyl)-2-[[5-methyl-1-[2-(4-methylphenoxy)ethyl]-2-oxo-indolin-3-ylidene]amino]oxy-tetrahydropyran-3-yl]acetamide
@<TRIPOS>ATOM
      1 C1          5.8051    3.1431   -6.7488 C.3       1 <0>        -0.1106
      2 C2          5.3008    2.8665   -5.3559 C.ar      1 <0>        -0.1248
      3 C3          4.5645    3.8256   -4.6853 C.ar      1 <0>        -0.0802
      4 C4          4.1011    3.5745   -3.4083 C.ar      1 <0>        -0.1443
      5 C5          4.3750    2.3587   -2.7989 C.ar      1 <0>         0.1248
      6 C6          5.1188    1.4002   -3.4716 C.ar      1 <0>        -0.2059
      7 C7          5.5755    1.6542   -4.7504 C.ar      1 <0>        -0.0816
      8 O1          3.9202    2.1092   -1.5428 O.3       1 <0>        -0.3037
      9 C8          4.2401    0.8362   -0.9778 C.3       1 <0>         0.0375
     10 C9          3.6479    0.7394    0.4296 C.3       1 <0>         0.1187
     11 N1          2.1856    0.7705    0.3473 N.am      1 <0>        -0.5416
     12 C10         1.3844   -0.3600    0.2162 C.ar      1 <0>         0.1615
     13 C11         1.7036   -1.7109    0.1336 C.ar      1 <0>        -0.1418
     14 C12         0.7029   -2.6532    0.0048 C.ar      1 <0>        -0.0639
     15 C13        -0.6261   -2.2682   -0.0428 C.ar      1 <0>        -0.1159
     16 C14        -0.9620   -0.9312    0.0383 C.ar      1 <0>        -0.0304
     17 C15         0.0389    0.0246    0.1677 C.ar      1 <0>        -0.1503
     18 C16         0.0206    1.5030    0.2777 C.2       1 <0>         0.1209
     19 N2         -1.0193    2.2870    0.2719 N.2       1 <0>        -0.2313
     20 O2         -2.3189    1.7384    0.1499 O.3       1 <0>        -0.1969
     21 C17        -3.3642    2.7127    0.1581 C.3       1 <0>         0.2498
     22 H1         -3.0578    3.5695    0.7582 H         1 <0>         0.1256
     23 C18        -4.6315    2.0968    0.7568 C.3       1 <0>         0.1418
     24 H2         -4.4193    1.7316    1.7616 H         1 <0>         0.1151
     25 C19        -5.0893    0.9313   -0.1255 C.3       1 <0>         0.1044
     26 H3         -6.0222    0.5238    0.2640 H         1 <0>         0.0809
     27 C20        -5.3094    1.4416   -1.5528 C.3       1 <0>         0.0510
     28 H4         -5.5821    0.6078   -2.1998 H         1 <0>         0.0719
     29 C21        -4.0160    2.0828   -2.0623 C.3       1 <0>         0.0614
     30 H5         -3.2272    1.3314   -2.0977 H         1 <0>         0.0865
     31 O3         -3.6295    3.1384   -1.1800 O.3       1 <0>        -0.3564
     32 C22        -4.2452    2.6487   -3.4653 C.3       1 <0>         0.0808
     33 O4         -3.0104    3.1440   -3.9867 O.3       1 <0>        -0.5584
     34 O5         -6.3575    2.4130   -1.5564 O.3       1 <0>        -0.5447
     35 O6         -4.0865   -0.0867   -0.1311 O.3       1 <0>        -0.5384
     36 N3         -5.6876    3.1104    0.8159 N.am      1 <0>        -0.6963
     37 C23        -6.6762    3.0014    1.7255 C.2       1 <0>         0.5189
     38 O7         -6.6914    2.0642    2.4951 O.2       1 <0>        -0.5471
     39 C24        -7.7626    4.0440    1.7862 C.3       1 <0>        -0.1688
     40 C25         1.4494    1.8941    0.3893 C.2       1 <0>         0.5910
     41 O8          1.8762    3.0270    0.4984 O.2       1 <0>        -0.4503
     42 C26        -1.7069   -3.3090   -0.1837 C.3       1 <0>        -0.1106
     43 H6          6.7927    3.6010   -6.6934 H         1 <0>         0.0684
     44 H7          5.8690    2.2076   -7.3045 H         1 <0>         0.0643
     45 H8          5.1183    3.8208   -7.2559 H         1 <0>         0.0653
     46 H9          4.3512    4.7718   -5.1603 H         1 <0>         0.1290
     47 H10         3.5263    4.3241   -2.8848 H         1 <0>         0.1311
     48 H11         5.3372    0.4547   -2.9976 H         1 <0>         0.1258
     49 H12         6.1514    0.9068   -5.2760 H         1 <0>         0.1240
     50 H13         5.3230    0.7240   -0.9249 H         1 <0>         0.0822
     51 H14         3.8231    0.0463   -1.6026 H         1 <0>         0.0694
     52 H15         3.9960    1.5807    1.0289 H         1 <0>         0.1085
     53 H16         3.9659   -0.1939    0.8942 H         1 <0>         0.1158
     54 H17         2.7367   -2.0236    0.1699 H         1 <0>         0.1306
     55 H18         0.9592   -3.7004   -0.0591 H         1 <0>         0.1343
     56 H19        -1.9983   -0.6294    0.0009 H         1 <0>         0.1533
     57 H20        -4.6251    1.8618   -4.1168 H         1 <0>         0.0608
     58 H21        -4.9704    3.4609   -3.4154 H         1 <0>         0.0563
     59 H22        -3.0807    3.5186   -4.8754 H         1 <0>         0.3824
     60 H23        -6.5477    2.7832   -2.4293 H         1 <0>         0.3786
     61 H24        -4.3077   -0.8537   -0.6767 H         1 <0>         0.3807
     62 H25        -5.6754    3.8599    0.2003 H         1 <0>         0.4122
     63 H26        -8.5824    3.7531    1.1295 H         1 <0>         0.0962
     64 H27        -8.1288    4.1279    2.8094 H         1 <0>         0.0939
     65 H28        -7.3622    5.0052    1.4637 H         1 <0>         0.0809
     66 H29        -1.9082   -3.4829   -1.2408 H         1 <0>         0.0699
     67 H30        -1.3790   -4.2386    0.2815 H         1 <0>         0.0679
     68 H31        -2.6152   -2.9582    0.3062 H         1 <0>         0.0699
@<TRIPOS>BOND
     1    1    2 1
     2    1   43 1
     3    1   44 1
     4    1   45 1
     5    2    7 ar
     6    2    3 ar
     7    3    4 ar
     8    3   46 1
     9    4    5 ar
    10    4   47 1
    11    5    6 ar
    12    5    8 1
    13    6    7 ar
    14    6   48 1
    15    7   49 1
    16    8    9 1
    17    9   10 1
    18    9   50 1
    19    9   51 1
    20   10   11 1
    21   10   52 1
    22   10   53 1
    23   11   40 am
    24   11   12 1
    25   12   17 ar
    26   12   13 ar
    27   13   14 ar
    28   13   54 1
    29   14   15 ar
    30   14   55 1
    31   15   16 ar
    32   15   42 1
    33   16   17 ar
    34   16   56 1
    35   17   18 1
    36   18   19 2
    37   18   40 1
    38   19   20 1
    39   20   21 1
    40   21   22 1
    41   21   31 1
    42   21   23 1
    43   23   24 1
    44   23   25 1
    45   23   36 1
    46   25   26 1
    47   25   27 1
    48   25   35 1
    49   27   28 1
    50   27   29 1
    51   27   34 1
    52   29   30 1
    53   29   31 1
    54   29   32 1
    55   32   33 1
    56   32   57 1
    57   32   58 1
    58   33   59 1
    59   34   60 1
    60   35   61 1
    61   36   37 am
    62   36   62 1
    63   37   38 2
    64   37   39 1
    65   39   63 1
    66   39   64 1
    67   39   65 1
    68   40   41 2
    69   42   66 1
    70   42   67 1
    71   42   68 1
@<TRIPOS>MOLECULE
ZINC16916839
   59    62     0     0     0
SMALL
USER_CHARGES
N-methyl-2-[[2-[2-[[3-(methylcarbamoyl)-5,6-dihydro-4H-cyclopenta[d]thiophen-2-yl]amino]-2-oxo-ethoxy]acetyl]amino]-5,6-dihydro-4H-cyclopenta[d]thiophene-3-carboxamide
@<TRIPOS>ATOM
      1 C1          4.1736    5.3117   -1.1985 C.3       1 <0>         0.0843
      2 N1          3.9482    3.8641   -1.1975 N.am      1 <0>        -0.7289
      3 C2          3.8594    3.1968   -0.0299 C.2       1 <0>         0.5781
      4 O1          3.9664    3.7967    1.0236 O.2       1 <0>        -0.5291
      5 C3          3.6338    1.7480   -0.0289 C.2       1 <0>        -0.2112
      6 C4          4.7531    0.8068   -0.0401 C.2       1 <0>        -0.0947
      7 C5          4.4064   -0.4929   -0.0432 C.2       1 <0>        -0.2322
      8 S1          2.6303   -0.4870   -0.0263 S.3       1 <0>         0.2701
      9 C6          2.3536    1.2214   -0.0139 C.2       1 <0>         0.0673
     10 N2          1.1435    1.8983    0.0013 N.am      1 <0>        -0.6184
     11 C7         -0.0144    1.2086    0.0087 C.2       1 <0>         0.5084
     12 O2          0.0021   -0.0041    0.0020 O.2       1 <0>        -0.4664
     13 C8         -1.3296    1.9443    0.0189 C.3       1 <0>         0.0511
     14 O3         -2.4030    1.0010    0.0189 O.3       1 <0>        -0.3346
     15 C9         -3.7013    1.5980    0.0283 C.3       1 <0>         0.0510
     16 C10        -4.7513    0.5169    0.0274 C.2       1 <0>         0.5084
     17 O4         -4.4203   -0.6498    0.0195 O.2       1 <0>        -0.4664
     18 N3         -6.0580    0.8467    0.0354 N.am      1 <0>        -0.6184
     19 C11        -7.0241   -0.1480    0.0346 C.2       1 <0>         0.0673
     20 C12        -8.4014   -0.0096    0.0475 C.2       1 <0>        -0.2111
     21 C13        -9.2050   -1.2315    0.0401 C.2       1 <0>        -0.0947
     22 C14        -8.5011   -2.3778    0.0300 C.2       1 <0>        -0.2323
     23 S2         -6.8009   -1.8642    0.0248 S.3       1 <0>         0.2702
     24 C15        -9.3948   -3.5884    0.0252 C.3       1 <0>        -0.0323
     25 C16       -10.7776   -3.0495   -0.4030 C.3       1 <0>        -0.1164
     26 C17       -10.6945   -1.5776    0.0476 C.3       1 <0>        -0.0605
     27 C18        -9.0318    1.3142    0.0643 C.2       1 <0>         0.5780
     28 O5         -9.3029    1.8725   -0.9827 O.2       1 <0>        -0.5291
     29 N4         -9.3111    1.9127    1.2392 N.am      1 <0>        -0.7288
     30 C19        -9.9410    3.2352    1.2560 C.3       1 <0>         0.0843
     31 C20         5.6088   -1.3975   -0.0571 C.3       1 <0>        -0.0324
     32 C21         6.7827   -0.4909    0.3743 C.3       1 <0>        -0.1164
     33 C22         6.2794    0.9011   -0.0565 C.3       1 <0>        -0.0605
     34 H1          5.1153    5.5331   -0.6963 H         1 <0>         0.0621
     35 H2          4.2165    5.6720   -2.2263 H         1 <0>         0.0779
     36 H3          3.3567    5.8069   -0.6736 H         1 <0>         0.0606
     37 H4          3.8629    3.3860   -2.0371 H         1 <0>         0.4041
     38 H5          1.1304    2.8682    0.0067 H         1 <0>         0.4200
     39 H6         -1.3916    2.5653    0.9126 H         1 <0>         0.0961
     40 H7         -1.4000    2.5749   -0.8673 H         1 <0>         0.0958
     41 H8         -3.8125    2.2118    0.9222 H         1 <0>         0.0958
     42 H9         -3.8210    2.2214   -0.8578 H         1 <0>         0.0962
     43 H10        -6.3227    1.7799    0.0417 H         1 <0>         0.4200
     44 H11        -9.0343   -4.3242   -0.6935 H         1 <0>         0.0803
     45 H12        -9.4491   -4.0247    1.0226 H         1 <0>         0.0858
     46 H13       -10.9064   -3.1202   -1.4831 H         1 <0>         0.0775
     47 H14       -11.5789   -3.5727    0.1189 H         1 <0>         0.0847
     48 H15       -11.2338   -0.9382   -0.6513 H         1 <0>         0.0734
     49 H16       -11.1037   -1.4669    1.0518 H         1 <0>         0.0800
     50 H17        -9.0951    1.4677    2.0736 H         1 <0>         0.4041
     51 H18       -10.9052    3.1849    0.7503 H         1 <0>         0.0620
     52 H19       -10.0880    3.5546    2.2877 H         1 <0>         0.0779
     53 H20        -9.2983    3.9503    0.7424 H         1 <0>         0.0606
     54 H21         5.4784   -2.2142    0.6528 H         1 <0>         0.0803
     55 H22         5.7790   -1.7881   -1.0604 H         1 <0>         0.0858
     56 H23         6.9334   -0.5347    1.4530 H         1 <0>         0.0775
     57 H24         7.6966   -0.7569   -0.1569 H         1 <0>         0.0847
     58 H25         6.6179    1.6596    0.6494 H         1 <0>         0.0734
     59 H26         6.6332    1.1361   -1.0603 H         1 <0>         0.0800
@<TRIPOS>BOND
     1    1    2 1
     2    1   34 1
     3    1   35 1
     4    1   36 1
     5    2    3 am
     6    2   37 1
     7    3    4 2
     8    3    5 1
     9    5    9 2
    10    5    6 1
    11    6   33 1
    12    6    7 2
    13    7    8 1
    14    7   31 1
    15    8    9 1
    16    9   10 1
    17   10   11 am
    18   10   38 1
    19   11   12 2
    20   11   13 1
    21   13   14 1
    22   13   39 1
    23   13   40 1
    24   14   15 1
    25   15   16 1
    26   15   41 1
    27   15   42 1
    28   16   17 2
    29   16   18 am
    30   18   19 1
    31   18   43 1
    32   19   23 1
    33   19   20 2
    34   20   21 1
    35   20   27 1
    36   21   26 1
    37   21   22 2
    38   22   23 1
    39   22   24 1
    40   24   25 1
    41   24   44 1
    42   24   45 1
    43   25   26 1
    44   25   46 1
    45   25   47 1
    46   26   48 1
    47   26   49 1
    48   27   28 2
    49   27   29 am
    50   29   30 1
    51   29   50 1
    52   30   51 1
    53   30   52 1
    54   30   53 1
    55   31   32 1
    56   31   54 1
    57   31   55 1
    58   32   33 1
    59   32   56 1
    60   32   57 1
    61   33   58 1
    62   33   59 1
@<TRIPOS>MOLECULE
ZINC24836470
   53    55     0     0     0
SMALL
USER_CHARGES
3-(3-oxopiperazin-1-yl)sulfonyl-N-[(1R)-1-(4-sulfamoylphenyl)ethyl]benzamide
@<TRIPOS>ATOM
      1 C1         -2.2580    2.8908    6.1500 C.3       1 <0>        -0.1605
      2 C2         -3.1305    3.0716    4.9062 C.3       1 <0>         0.1791
      3 H1         -4.0525    2.4763    4.9804 H         1 <0>         0.1064
      4 C3         -2.3533    2.6585    3.6830 C.ar      1 <0>        -0.0325
      5 C4         -2.5590    1.4121    3.1216 C.ar      1 <0>        -0.1267
      6 C5         -1.8458    1.0330    1.9999 C.ar      1 <0>        -0.0051
      7 C6         -0.9267    1.9002    1.4394 C.ar      1 <0>        -0.6621
      8 C7         -0.7172    3.1446    2.0038 C.ar      1 <0>        -0.0187
      9 C8         -1.4342    3.5257    3.1225 C.ar      1 <0>        -0.1386
     10 S1         -0.0172    1.4168    0.0098 S.o2      1 <0>         2.6353
     11 O1          0.0021   -0.0041    0.0020 O.2       1 <0>        -0.9497
     12 O2          1.1718    2.1948    0.0027 O.2       1 <0>        -0.9848
     13 N1         -0.8975    1.8855   -1.3122 N.pl3     1 <0>        -1.1620
     14 N2         -3.5216    4.4781    4.7843 N.am      1 <0>        -0.7346
     15 C9         -4.6000    4.9378    5.4493 C.2       1 <0>         0.5641
     16 O3         -5.2481    4.1853    6.1502 O.2       1 <0>        -0.5278
     17 C10        -4.9947    6.3573    5.3262 C.ar      1 <0>        -0.1522
     18 C11        -4.2492    7.2254    4.5267 C.ar      1 <0>        -0.0316
     19 C12        -4.6254    8.5476    4.4128 C.ar      1 <0>        -0.1398
     20 C13        -5.7332    9.0163    5.0969 C.ar      1 <0>         0.0058
     21 C14        -6.4735    8.1624    5.8947 C.ar      1 <0>        -0.6860
     22 C15        -6.1108    6.8364    6.0135 C.ar      1 <0>         0.0385
     23 S2         -7.8823    8.7695    6.7615 S.o2      1 <0>         2.6928
     24 O4         -8.3309    9.9173    6.0541 O.2       1 <0>        -0.9422
     25 O5         -8.7219    7.6496    7.0069 O.2       1 <0>        -0.9399
     26 N3         -7.3567    9.2998    8.2396 N.pl3     1 <0>        -1.0031
     27 C16        -7.3168    8.4018    9.4061 C.3       1 <0>         0.0973
     28 C17        -5.8576    8.2927    9.8687 C.3       1 <0>         0.0990
     29 N4         -5.2406    9.6098    9.9445 N.am      1 <0>        -0.7267
     30 C18        -5.6700   10.6862    9.2840 C.2       1 <0>         0.5118
     31 O6         -5.0254   11.7103    9.3657 O.2       1 <0>        -0.5468
     32 C19        -6.9167   10.6883    8.4421 C.3       1 <0>         0.1070
     33 H2         -2.8254    3.1924    7.0428 H         1 <0>         0.0716
     34 H3         -1.3570    3.5154    6.0598 H         1 <0>         0.0631
     35 H4         -1.9644    1.8347    6.2415 H         1 <0>         0.0733
     36 H5         -3.2768    0.7344    3.5597 H         1 <0>         0.1391
     37 H6         -2.0063    0.0590    1.5615 H         1 <0>         0.1470
     38 H7          0.0040    3.8204    1.5685 H         1 <0>         0.1444
     39 H8         -1.2732    4.4994    3.5613 H         1 <0>         0.1316
     40 H9         -0.3614    1.6006   -2.2295 H         1 <0>         0.4155
     41 H10        -1.0361    2.9766   -1.2924 H         1 <0>         0.4088
     42 H11        -2.9351    5.1591    4.1500 H         1 <0>         0.4165
     43 H12        -3.3818    6.8618    3.9958 H         1 <0>         0.1339
     44 H13        -4.0515    9.2195    3.7919 H         1 <0>         0.1441
     45 H14        -6.0209   10.0535    5.0079 H         1 <0>         0.1471
     46 H15        -6.6896    6.1708    6.6366 H         1 <0>         0.1544
     47 H16        -7.9409    8.8179   10.2107 H         1 <0>         0.0947
     48 H17        -7.7002    7.4114    9.1197 H         1 <0>         0.1181
     49 H18        -5.8225    7.8263   10.8643 H         1 <0>         0.0954
     50 H19        -5.2917    7.6761    9.1548 H         1 <0>         0.0700
     51 H20        -4.3569    9.7674   10.5803 H         1 <0>         0.4261
     52 H21        -6.7063   11.1521    7.4671 H         1 <0>         0.1237
     53 H22        -7.7099   11.2534    8.9535 H         1 <0>         0.1158
@<TRIPOS>BOND
     1    1    2 1
     2    1   33 1
     3    1   34 1
     4    1   35 1
     5    2    3 1
     6    2    4 1
     7    2   14 1
     8    4    9 ar
     9    4    5 ar
    10    5    6 ar
    11    5   36 1
    12    6    7 ar
    13    6   37 1
    14    7    8 ar
    15    7   10 1
    16    8    9 ar
    17    8   38 1
    18    9   39 1
    19   10   11 2
    20   10   12 2
    21   10   13 1
    22   13   40 1
    23   13   41 1
    24   14   15 am
    25   14   42 1
    26   15   16 2
    27   15   17 1
    28   17   22 ar
    29   17   18 ar
    30   18   19 ar
    31   18   43 1
    32   19   20 ar
    33   19   44 1
    34   20   21 ar
    35   20   45 1
    36   21   22 ar
    37   21   23 1
    38   22   46 1
    39   23   24 2
    40   23   25 2
    41   23   26 1
    42   26   32 1
    43   26   27 1
    44   27   28 1
    45   27   47 1
    46   27   48 1
    47   28   29 1
    48   28   49 1
    49   28   50 1
    50   29   30 am
    51   29   51 1
    52   30   31 2
    53   30   32 1
    54   32   52 1
    55   32   53 1
@<TRIPOS>MOLECULE
ZINC16033754
   59    64     0     0     0
SMALL
USER_CHARGES

@<TRIPOS>ATOM
      1 C1         -1.2957    1.1430    0.0879 C.3       1 <0>        -0.1190
      2 C2         -1.0611   -0.3454    0.1129 C.ar      1 <0>        -0.0993
      3 C3         -1.1430   -1.0753   -1.0565 C.ar      1 <0>         0.0066
      4 C4         -0.9293   -2.4424   -1.0425 C.ar      1 <0>        -0.1221
      5 C5         -0.6332   -3.0816    0.1486 C.ar      1 <0>        -0.0067
      6 C6         -0.5509   -2.3576    1.3167 C.ar      1 <0>        -0.1276
      7 C7         -0.7567   -0.9805    1.3140 C.ar      1 <0>         0.1596
      8 N1         -0.6134   -0.4681    2.6054 N.am      1 <0>        -0.6507
      9 C8         -0.3124   -1.4280    3.5013 C.2       1 <0>         0.5157
     10 O1         -0.1307   -1.2765    4.6908 O.2       1 <0>        -0.4789
     11 C9         -0.2580   -2.7263    2.7431 C.3       1 <0>         0.1223
     12 C10         1.1195   -3.3852    2.8856 C.3       1 <0>        -0.1034
     13 H1          1.9071   -2.6661    3.1106 H         1 <0>         0.1446
     14 C11         0.9312   -4.4451    4.0068 C.3       1 <0>        -0.1168
     15 H2          1.6287   -4.3137    4.8340 H         1 <0>         0.1488
     16 C12        -0.5419   -4.3017    4.4441 C.3       1 <0>         0.0735
     17 H3         -0.6173   -3.6487    5.3136 H         1 <0>         0.0957
     18 N2         -1.2304   -3.7077    3.2593 N.3       1 <0>        -0.6159
     19 C13        -1.1399   -5.6746    4.7574 C.3       1 <0>        -0.0956
     20 C14        -2.5572   -5.5002    5.3068 C.3       1 <0>        -0.1430
     21 C15        -3.1463   -6.8526    5.6154 C.2       1 <0>         0.5143
     22 O2         -2.4965   -7.8570    5.4157 O.2       1 <0>        -0.5336
     23 N3         -4.3952   -6.9459    6.1134 N.am      1 <0>        -0.8597
     24 C16         1.1264   -5.7579    3.2834 C.2       1 <0>         0.5397
     25 O3          1.0562   -6.8557    3.7929 O.2       1 <0>        -0.4459
     26 N4          1.3884   -5.5196    1.9932 N.am      1 <0>        -0.5211
     27 C17         1.4179   -4.2102    1.6538 C.2       1 <0>         0.5425
     28 O4          1.6424   -3.7634    0.5494 O.2       1 <0>        -0.4395
     29 C18         1.6208   -6.5452    1.0640 C.ar      1 <0>         0.1119
     30 C19         2.8801   -6.6997    0.5009 C.ar      1 <0>        -0.0935
     31 C20         3.1091   -7.7078   -0.4151 C.ar      1 <0>        -0.1015
     32 C21         2.0828   -8.5692   -0.7744 C.ar      1 <0>         0.0643
     33 C22         0.8215   -8.4186   -0.2100 C.ar      1 <0>         0.0636
     34 C23         0.5935   -7.4086    0.7120 C.ar      1 <0>        -0.0895
     35 O5         -0.1959   -9.2588   -0.5441 O.3       1 <0>        -0.3020
     36 C24        -0.0305  -10.0258   -1.7417 C.3       1 <0>         0.0199
     37 C25         1.3808  -10.6286   -1.7352 C.3       1 <0>         0.0187
     38 O6          2.3264   -9.5548   -1.6820 O.3       1 <0>        -0.3032
     39 Cl1        -1.5163   -0.2744   -2.5507 Cl        1 <0>        -0.0518
     40 H4         -0.3510    1.6568   -0.0899 H         1 <0>         0.0784
     41 H5         -1.9976    1.3869   -0.7095 H         1 <0>         0.0807
     42 H6         -1.7081    1.4619    1.0452 H         1 <0>         0.0652
     43 H7         -0.9932   -3.0094   -1.9595 H         1 <0>         0.1420
     44 H8         -0.4668   -4.1487    0.1619 H         1 <0>         0.1328
     45 H9         -0.7187    0.4694    2.8309 H         1 <0>         0.4183
     46 H10        -2.0891   -3.2553    3.5350 H         1 <0>         0.3544
     47 H11        -1.1743   -6.2725    3.8466 H         1 <0>         0.0846
     48 H12        -0.5219   -6.1792    5.5001 H         1 <0>         0.0932
     49 H13        -2.5229   -4.9024    6.2175 H         1 <0>         0.0949
     50 H14        -3.1752   -4.9957    4.5641 H         1 <0>         0.0950
     51 H15        -4.9149   -6.1426    6.2731 H         1 <0>         0.4006
     52 H16        -4.7743   -7.8163    6.3120 H         1 <0>         0.4016
     53 H17         3.6813   -6.0310    0.7790 H         1 <0>         0.1366
     54 H18         4.0893   -7.8254   -0.8530 H         1 <0>         0.1455
     55 H19        -0.3852   -7.2914    1.1533 H         1 <0>         0.1406
     56 H20        -0.7713  -10.8249   -1.7717 H         1 <0>         0.1259
     57 H21        -0.1504   -9.3799   -2.6114 H         1 <0>         0.0807
     58 H22         1.5028  -11.2694   -0.8619 H         1 <0>         0.0813
     59 H23         1.5362  -11.2106   -2.6436 H         1 <0>         0.1260
@<TRIPOS>BOND
     1    1    2 1
     2    1   40 1
     3    1   41 1
     4    1   42 1
     5    2    7 ar
     6    2    3 ar
     7    3    4 ar
     8    3   39 1
     9    4    5 ar
    10    4   43 1
    11    5    6 ar
    12    5   44 1
    13    6   11 1
    14    6    7 ar
    15    7    8 1
    16    8    9 am
    17    8   45 1
    18    9   10 2
    19    9   11 1
    20   11   18 1
    21   11   12 1
    22   12   13 1
    23   12   27 1
    24   12   14 1
    25   14   15 1
    26   14   16 1
    27   14   24 1
    28   16   17 1
    29   16   18 1
    30   16   19 1
    31   18   46 1
    32   19   20 1
    33   19   47 1
    34   19   48 1
    35   20   21 1
    36   20   49 1
    37   20   50 1
    38   21   22 2
    39   21   23 am
    40   23   51 1
    41   23   52 1
    42   24   25 2
    43   24   26 am
    44   26   27 am
    45   26   29 1
    46   27   28 2
    47   29   34 ar
    48   29   30 ar
    49   30   31 ar
    50   30   53 1
    51   31   32 ar
    52   31   54 1
    53   32   38 1
    54   32   33 ar
    55   33   34 ar
    56   33   35 1
    57   34   55 1
    58   35   36 1
    59   36   37 1
    60   36   56 1
    61   36   57 1
    62   37   38 1
    63   37   58 1
    64   37   59 1
@<TRIPOS>MOLECULE
ZINC04070973
   39    42     0     0     0
SMALL
USER_CHARGES
5-amino-1-(ethylBLAHyl)-pyrazole-4-carbonitrile
@<TRIPOS>ATOM
      1 C1         -2.9168    9.8649   -0.6218 C.3       1 <0>        -0.1449
      2 C2         -1.5458    9.2441   -0.8974 C.3       1 <0>        -0.0567
      3 C3         -1.5843    7.7743   -0.5667 C.ar      1 <0>         0.3550
      4 N1         -1.2750    7.3999    0.6583 N.ar      1 <0>        -0.5363
      5 C4         -1.2715    6.1353    1.0714 C.ar      1 <0>         0.4611
      6 C5         -1.6307    5.1634    0.0961 C.ar      1 <0>        -0.1655
      7 C6         -1.7072    3.7235    0.2779 C.2       1 <0>        -0.0849
      8 C7         -2.0761    2.9944   -0.7999 C.2       1 <0>        -0.1300
      9 S1         -2.3358    4.1768   -2.0987 S.3       1 <0>         0.1373
     10 C8         -1.9516    5.6448   -1.2002 C.ar      1 <0>         0.1126
     11 N2         -1.9285    6.9210   -1.5241 N.ar      1 <0>        -0.4418
     12 C9         -2.2310    1.5068   -0.8787 C.3       1 <0>        -0.0443
     13 C10        -1.5496    0.8808    0.3463 C.3       1 <0>        -0.1150
     14 C11        -1.9987    1.6368    1.6003 C.3       1 <0>        -0.1236
     15 C12        -1.3927    3.0396    1.6059 C.3       1 <0>        -0.0570
     16 N3         -0.9374    5.7846    2.3768 N.pl3     1 <0>        -0.3473
     17 C13        -1.5482    6.2372    3.5040 C.2       1 <0>         0.4532
     18 C14        -0.9051    5.6380    4.5832 C.2       1 <0>        -0.2541
     19 C15         0.1126    4.8109    4.0526 C.2       1 <0>         0.1442
     20 N4          0.0805    4.9014    2.7529 N.2       1 <0>        -0.2714
     21 C16        -1.2147    5.8242    5.9689 C.1       1 <0>         0.2935
     22 N5         -1.4602    5.9719    7.0681 N.1       1 <0>        -0.4344
     23 N6         -2.6052    7.1233    3.5663 N.pl3     1 <0>        -0.8226
     24 H1         -3.6690    9.3732   -1.2387 H         1 <0>         0.0608
     25 H2         -3.1691    9.7358    0.4307 H         1 <0>         0.0572
     26 H3         -2.8890   10.9280   -0.8610 H         1 <0>         0.0740
     27 H4         -0.7936    9.7358   -0.2805 H         1 <0>         0.0974
     28 H5         -1.2935    9.3732   -1.9499 H         1 <0>         0.0996
     29 H6         -1.7592    1.1371   -1.7891 H         1 <0>         0.0899
     30 H7         -3.2899    1.2484   -0.8807 H         1 <0>         0.0913
     31 H8         -1.8366   -0.1675    0.4287 H         1 <0>         0.0786
     32 H9         -0.4673    0.9566    0.2414 H         1 <0>         0.0722
     33 H10        -3.0859    1.7148    1.6064 H         1 <0>         0.0639
     34 H11        -1.6705    1.0946    2.4871 H         1 <0>         0.0752
     35 H12        -0.3124    2.9673    1.7323 H         1 <0>         0.0988
     36 H13        -1.8196    3.6186    2.4248 H         1 <0>         0.0697
     37 H14         0.7971    4.2042    4.6269 H         1 <0>         0.2075
     38 H15        -2.9831    7.4856    2.7497 H         1 <0>         0.4108
     39 H16        -2.9700    7.3834    4.4266 H         1 <0>         0.4260
@<TRIPOS>BOND
     1    1    2 1
     2    1   24 1
     3    1   25 1
     4    1   26 1
     5    2    3 1
     6    2   27 1
     7    2   28 1
     8    3   11 ar
     9    3    4 ar
    10    4    5 ar
    11    5    6 ar
    12    5   16 1
    13    6   10 ar
    14    6    7 1
    15    7   15 1
    16    7    8 2
    17    8    9 1
    18    8   12 1
    19    9   10 1
    20   10   11 ar
    21   12   13 1
    22   12   29 1
    23   12   30 1
    24   13   14 1
    25   13   31 1
    26   13   32 1
    27   14   15 1
    28   14   33 1
    29   14   34 1
    30   15   35 1
    31   15   36 1
    32   16   20 1
    33   16   17 1
    34   17   18 2
    35   17   23 1
    36   18   19 1
    37   18   21 1
    38   19   20 2
    39   19   37 1
    40   21   22 3
    41   23   38 1
    42   23   39 1
@<TRIPOS>MOLECULE
ZINC39237530
   37    40     0     0     0
SMALL
USER_CHARGES

@<TRIPOS>ATOM
      1 C1         -0.0183    1.3718    0.0105 C.ar      1 <0>        -0.1604
      2 C2          1.1658    2.0925    0.0037 C.ar      1 <0>        -0.0429
      3 C3          2.3844    1.4413   -0.0139 C.ar      1 <0>        -0.1658
      4 C4          2.4214    0.0577   -0.0236 C.ar      1 <0>         0.2246
      5 C5          1.2221   -0.6767   -0.0133 C.ar      1 <0>        -0.2000
      6 C6          0.0010   -0.0076    0.0019 C.ar      1 <0>        -0.0195
      7 C7          1.3007   -2.1487   -0.0145 C.2       1 <0>         0.5580
      8 O1          0.3184   -2.8172    0.2443 O.2       1 <0>        -0.5251
      9 N1          2.4750   -2.7458   -0.3056 N.am      1 <0>        -0.4856
     10 C8          3.6469   -1.9627   -0.6968 C.3       1 <0>         0.4423
     11 H1          4.5513   -2.4935   -0.3994 H         1 <0>         0.1286
     12 N2          3.6197   -0.6468   -0.0467 N.pl3     1 <0>        -0.7411
     13 C9          3.6464   -1.7740   -2.2151 C.3       1 <0>        -0.1630
     14 H2          3.7163   -2.7372   -2.7207 H         1 <0>         0.1515
     15 C10         2.4056   -1.0259   -2.6600 C.2       1 <0>         0.0915
     16 N3          2.8236    0.0673   -3.2105 N.2       1 <0>        -0.2896
     17 N4          4.2107    0.1710   -3.2025 N.2       1 <0>        -0.2885
     18 C11         4.7814   -0.8636   -2.6408 C.2       1 <0>         0.1494
     19 C12         6.2225   -1.0965   -2.4574 C.ar      1 <0>        -0.0401
     20 C13         6.6768   -2.3105   -1.9320 C.ar      1 <0>        -0.0815
     21 C14         8.0285   -2.5218   -1.7634 C.ar      1 <0>        -0.1097
     22 C15         8.9362   -1.5353   -2.1131 C.ar      1 <0>        -0.0143
     23 C16         8.4933   -0.3302   -2.6337 C.ar      1 <0>        -0.1110
     24 C17         7.1450   -0.1071   -2.8132 C.ar      1 <0>        -0.0575
     25 Cl1        10.6366   -1.8103   -1.8973 Cl        1 <0>        -0.0568
     26 O2          2.5750   -4.1563   -0.2307 O.3       1 <0>        -0.3199
     27 H3         -0.9634    1.8943    0.0271 H         1 <0>         0.1335
     28 H4          1.1356    3.1720    0.0120 H         1 <0>         0.1328
     29 H5          3.3031    2.0090   -0.0204 H         1 <0>         0.1307
     30 H6         -0.9243   -0.5645    0.0070 H         1 <0>         0.1393
     31 H7          4.4200   -0.2770    0.3578 H         1 <0>         0.4221
     32 H8          1.3797   -1.3419   -2.5413 H         1 <0>         0.1927
     33 H9          5.9703   -3.0803   -1.6587 H         1 <0>         0.1375
     34 H10         8.3808   -3.4586   -1.3575 H         1 <0>         0.1434
     35 H11         9.2065    0.4346   -2.9034 H         1 <0>         0.1431
     36 H12         6.8014    0.8310   -3.2236 H         1 <0>         0.1460
     37 H13         1.7553   -4.5951    0.0352 H         1 <0>         0.4051
@<TRIPOS>BOND
     1    1    6 ar
     2    1    2 ar
     3    1   27 1
     4    2    3 ar
     5    2   28 1
     6    3    4 ar
     7    3   29 1
     8    4   12 1
     9    4    5 ar
    10    5    6 ar
    11    5    7 1
    12    6   30 1
    13    7    8 2
    14    7    9 am
    15    9   10 1
    16    9   26 1
    17   10   11 1
    18   10   12 1
    19   10   13 1
    20   12   31 1
    21   13   14 1
    22   13   18 1
    23   13   15 1
    24   15   16 2
    25   15   32 1
    26   16   17 1
    27   17   18 2
    28   18   19 1
    29   19   24 ar
    30   19   20 ar
    31   20   21 ar
    32   20   33 1
    33   21   22 ar
    34   21   34 1
    35   22   23 ar
    36   22   25 1
    37   23   24 ar
    38   23   35 1
    39   24   36 1
    40   26   37 1
@<TRIPOS>MOLECULE
ZINC48688890
   48    50     0     0     0
SMALL
USER_CHARGES

@<TRIPOS>ATOM
      1 C1         -0.0102    1.5357    0.0008 C.3       1 <0>        -0.1513
      2 C2          0.0017    0.0058    0.0003 C.3       1 <0>        -0.0993
      3 H1         -1.0230   -0.3656    0.0088 H         1 <0>         0.0905
      4 C3          0.7165   -0.4983   -1.2551 C.3       1 <0>        -0.1190
      5 C4          0.7284   -2.0282   -1.2555 C.3       1 <0>        -0.1217
      6 C5          1.4640   -2.5329   -0.0125 C.3       1 <0>        -0.1214
      7 C6          0.7493   -2.0289    1.2428 C.3       1 <0>        -0.1322
      8 C7          0.7374   -0.4989    1.2433 C.3       1 <0>         0.1485
      9 H2          0.2282   -0.1398    2.1377 H         1 <0>         0.0951
     10 N1          2.1147    0.0002    1.2319 N.am      1 <0>        -0.6865
     11 C8          2.7926    0.1338    2.3891 C.2       1 <0>         0.5116
     12 O1          2.2621   -0.1593    3.4405 O.2       1 <0>        -0.5144
     13 C9          4.1965    0.6426    2.3775 C.2       1 <0>         0.5068
     14 O2          4.7272    0.9357    1.3258 O.2       1 <0>        -0.4962
     15 N2          4.8745    0.7762    3.5346 N.am      1 <0>        -0.6393
     16 C10         6.2192    1.1601    3.5170 C.ar      1 <0>         0.1463
     17 C11         7.1029    0.6386    4.4534 C.ar      1 <0>        -0.1265
     18 C12         8.4313    1.0173    4.4373 C.ar      1 <0>        -0.0821
     19 C13         8.8862    1.9182    3.4875 C.ar      1 <0>         0.0235
     20 C14         8.0026    2.4427    2.5468 C.ar      1 <0>         0.0534
     21 C15         6.6725    2.0584    2.5597 C.ar      1 <0>        -0.1039
     22 O3          8.6888    3.2968    1.7324 O.3       1 <0>        -0.2958
     23 C16         9.9073    3.6032    2.4356 C.3       1 <0>         0.2553
     24 O4         10.1262    2.4444    3.2616 O.3       1 <0>        -0.2973
     25 C17         9.7296    4.8534    3.2995 C.3       1 <0>        -0.1846
     26 C18        11.0640    3.7881    1.4514 C.3       1 <0>        -0.1470
     27 H3          1.0146    1.9070   -0.0077 H         1 <0>         0.0556
     28 H4         -0.5343    1.8952   -0.8847 H         1 <0>         0.0609
     29 H5         -0.5194    1.8948    0.8952 H         1 <0>         0.0579
     30 H6          0.1924   -0.1388   -2.1406 H         1 <0>         0.0701
     31 H7          1.7412   -0.1270   -1.2635 H         1 <0>         0.0611
     32 H8         -0.2964   -2.3996   -1.2471 H         1 <0>         0.0651
     33 H9          1.2376   -2.3873   -2.1499 H         1 <0>         0.0647
     34 H10         1.4725   -3.6229   -0.0129 H         1 <0>         0.0649
     35 H11         2.4888   -2.1616   -0.0210 H         1 <0>         0.0612
     36 H12        -0.2755   -2.4002    1.2513 H         1 <0>         0.0775
     37 H13         1.2734   -2.3884    2.1284 H         1 <0>         0.0698
     38 H14         2.5387    0.2344    0.3916 H         1 <0>         0.4123
     39 H15         4.4297    0.6061    4.3797 H         1 <0>         0.4270
     40 H16         6.7510   -0.0633    5.1949 H         1 <0>         0.1449
     41 H17         9.1165    0.6109    5.1664 H         1 <0>         0.1428
     42 H18         5.9868    2.4607    1.8288 H         1 <0>         0.1512
     43 H19         8.9270    4.6874    4.0181 H         1 <0>         0.0690
     44 H20        10.6572    5.0616    3.8326 H         1 <0>         0.0874
     45 H21         9.4778    5.7019    2.6633 H         1 <0>         0.0870
     46 H22        10.8393    4.6151    0.7778 H         1 <0>         0.0898
     47 H23        11.9786    4.0068    2.0026 H         1 <0>         0.0897
     48 H24        11.1982    2.8743    0.8726 H         1 <0>         0.0776
@<TRIPOS>BOND
     1    1    2 1
     2    1   27 1
     3    1   28 1
     4    1   29 1
     5    2    3 1
     6    2    8 1
     7    2    4 1
     8    4    5 1
     9    4   30 1
    10    4   31 1
    11    5    6 1
    12    5   32 1
    13    5   33 1
    14    6    7 1
    15    6   34 1
    16    6   35 1
    17    7    8 1
    18    7   36 1
    19    7   37 1
    20    8    9 1
    21    8   10 1
    22   10   11 am
    23   10   38 1
    24   11   12 2
    25   11   13 1
    26   13   14 2
    27   13   15 am
    28   15   16 1
    29   15   39 1
    30   16   21 ar
    31   16   17 ar
    32   17   18 ar
    33   17   40 1
    34   18   19 ar
    35   18   41 1
    36   19   24 1
    37   19   20 ar
    38   20   21 ar
    39   20   22 1
    40   21   42 1
    41   22   23 1
    42   23   24 1
    43   23   25 1
    44   23   26 1
    45   25   43 1
    46   25   44 1
    47   25   45 1
    48   26   46 1
    49   26   47 1
    50   26   48 1
@<TRIPOS>MOLECULE
ZINC00088449
   35    38     0     0     0
SMALL
USER_CHARGES

@<TRIPOS>ATOM
      1 C1         -0.2435    0.6736   -0.3787 C.2       1 <0>        -0.2073
      2 C2          1.0569    1.1984   -0.1984 C.2       1 <0>        -0.1772
      3 C3          1.9105    0.1622   -0.2831 C.2       1 <0>        -0.0216
      4 O1          1.2000   -0.9560   -0.5038 O.3       1 <0>        -0.1684
      5 C4         -0.1068   -0.6518   -0.5627 C.2       1 <0>        -0.0328
      6 C5          3.4097    0.2424   -0.1529 C.3       1 <0>         0.1140
      7 H1          3.7055    1.2768    0.0223 H         1 <0>         0.1183
      8 C6          4.0644   -0.2668   -1.4426 C.3       1 <0>        -0.1439
      9 H2          3.5397   -1.1288   -1.8544 H         1 <0>         0.1606
     10 C7          4.2036    0.8498   -2.4519 C.2       1 <0>         0.1683
     11 N1          5.4860    1.0163   -2.6333 N.2       1 <0>        -0.2670
     12 N2          6.2481    0.1644   -1.8340 N.2       1 <0>        -0.2650
     13 C8          5.5102   -0.5904   -1.0767 C.2       1 <0>         0.2692
     14 O2          5.8041   -1.4547   -0.0811 O.3       1 <0>        -0.1950
     15 C9          4.9759   -1.3737    0.9920 C.2       1 <0>         0.4422
     16 C10         3.8612   -0.6125    1.0006 C.2       1 <0>        -0.2796
     17 C11         3.0541   -0.6194    2.1836 C.1       1 <0>         0.2673
     18 N3          2.4139   -0.6249    3.1220 N.1       1 <0>        -0.4264
     19 N4          5.2864   -2.0958    2.1175 N.pl3     1 <0>        -0.8193
     20 C12         3.1140    1.5977   -3.0995 C.ar      1 <0>        -0.0472
     21 C13         3.3447    2.8832   -3.5995 C.ar      1 <0>        -0.0551
     22 C14         2.3195    3.5777   -4.2054 C.ar      1 <0>        -0.1151
     23 C15         1.0633    3.0051   -4.3196 C.ar      1 <0>        -0.0087
     24 C16         0.8274    1.7323   -3.8263 C.ar      1 <0>        -0.1091
     25 C17         1.8447    1.0239   -3.2231 C.ar      1 <0>        -0.0569
     26 Cl1        -0.2218    3.8871   -5.0841 Cl        1 <0>        -0.0583
     27 H3         -1.1693    1.2296   -0.3663 H         1 <0>         0.1503
     28 H4          1.3154    2.2328   -0.0264 H         1 <0>         0.1478
     29 H5         -0.9115   -1.3526   -0.7293 H         1 <0>         0.2044
     30 H6          6.0831   -2.6489    2.1345 H         1 <0>         0.4173
     31 H7          4.7091   -2.0530    2.8958 H         1 <0>         0.4302
     32 H8          4.3235    3.3309   -3.5108 H         1 <0>         0.1454
     33 H9          2.4961    4.5707   -4.5916 H         1 <0>         0.1432
     34 H10        -0.1545    1.2922   -3.9184 H         1 <0>         0.1411
     35 H11         1.6607    0.0298   -2.8432 H         1 <0>         0.1340
@<TRIPOS>BOND
     1    1    5 2
     2    1    2 1
     3    1   27 1
     4    2    3 2
     5    2   28 1
     6    3    4 1
     7    3    6 1
     8    4    5 1
     9    5   29 1
    10    6    7 1
    11    6   16 1
    12    6    8 1
    13    8    9 1
    14    8   13 1
    15    8   10 1
    16   10   11 2
    17   10   20 1
    18   11   12 1
    19   12   13 2
    20   13   14 1
    21   14   15 1
    22   15   16 2
    23   15   19 1
    24   16   17 1
    25   17   18 3
    26   19   30 1
    27   19   31 1
    28   20   25 ar
    29   20   21 ar
    30   21   22 ar
    31   21   32 1
    32   22   23 ar
    33   22   33 1
    34   23   24 ar
    35   23   26 1
    36   24   25 ar
    37   24   34 1
    38   25   35 1
@<TRIPOS>MOLECULE
ZINC65357874
   41    42     0     0     0
SMALL
USER_CHARGES

@<TRIPOS>ATOM
      1 C1         -0.0396    1.5191   -0.0002 C.3       1 <0>        -0.0849
      2 C2         -0.0151    0.0123   -0.0000 C.2       1 <0>         0.0842
      3 C3         -0.0008   -0.8079   -1.1329 C.2       1 <0>        -0.2562
      4 C4          0.0202   -2.0947   -0.7151 C.2       1 <0>         0.1076
      5 N1          0.0191   -2.0892    0.6343 N.pl3     1 <0>        -0.3696
      6 N2          0.0021   -0.7546    1.0599 N.2       1 <0>        -0.2916
      7 C5          0.0380   -3.2701    1.5011 C.3       1 <0>         0.0984
      8 C6          0.0405   -3.3155   -1.5986 C.3       1 <0>        -0.0996
      9 C7         -0.0083   -0.3409   -2.5657 C.3       1 <0>         0.2438
     10 C8         -1.4099    0.1490   -2.9352 C.3       1 <0>        -0.1600
     11 N3          0.9504    0.7551   -2.7271 N.am      1 <0>        -0.7303
     12 C9          1.4953    1.0014   -3.9350 C.2       1 <0>         0.7064
     13 O1          1.1913    0.3140   -4.8906 O.2       1 <0>        -0.5662
     14 N4          2.3772    2.0097   -4.0834 N.am      1 <0>        -0.6855
     15 C10         3.0139    2.2049   -5.3097 C.ar      1 <0>         0.2116
     16 C11         2.3285    1.9553   -6.4948 C.ar      1 <0>        -0.1179
     17 C12         2.9523    2.1469   -7.7068 C.ar      1 <0>        -0.0367
     18 C13         4.2767    2.5929   -7.7470 C.ar      1 <0>        -0.0385
     19 C14         4.9630    2.8429   -6.5539 C.ar      1 <0>         0.0260
     20 C15         4.3293    2.6536   -5.3442 C.ar      1 <0>        -0.1429
     21 Cl1         6.6077    3.3970   -6.5966 Cl        1 <0>        -0.0450
     22 C16         4.9291    2.7929   -9.0060 C.1       1 <0>         0.2496
     23 N5          5.4466    2.9515  -10.0047 N.1       1 <0>        -0.3989
     24 H1          0.9821    1.8990   -0.0044 H         1 <0>         0.0769
     25 H2         -0.5628    1.8739   -0.8881 H         1 <0>         0.0816
     26 H3         -0.5556    1.8742    0.8918 H         1 <0>         0.0799
     27 H4          1.0702   -3.5460    1.7168 H         1 <0>         0.0770
     28 H5         -0.4802   -3.0449    2.4332 H         1 <0>         0.0914
     29 H6         -0.4619   -4.0979    0.9983 H         1 <0>         0.0891
     30 H7          1.0729   -3.5929   -1.8112 H         1 <0>         0.0846
     31 H8         -0.4600   -4.1399   -1.0907 H         1 <0>         0.0745
     32 H9         -0.4767   -3.0966   -2.5328 H         1 <0>         0.0898
     33 H10         0.2716   -1.1675   -3.2188 H         1 <0>         0.0957
     34 H11        -1.4153    0.4867   -3.9715 H         1 <0>         0.0650
     35 H12        -2.1231   -0.6665   -2.8151 H         1 <0>         0.0670
     36 H13        -1.6898    0.9756   -2.2821 H         1 <0>         0.0587
     37 H14         1.1929    1.3036   -1.9647 H         1 <0>         0.3980
     38 H15         2.5694    2.5997   -3.3379 H         1 <0>         0.4121
     39 H16         1.3056    1.6104   -6.4636 H         1 <0>         0.1597
     40 H17         2.4192    1.9524   -8.6258 H         1 <0>         0.1476
     41 H18         4.8564    2.8505   -4.4224 H         1 <0>         0.1477
@<TRIPOS>BOND
     1    1    2 1
     2    1   24 1
     3    1   25 1
     4    1   26 1
     5    2    6 2
     6    2    3 1
     7    3    4 2
     8    3    9 1
     9    4    5 1
    10    4    8 1
    11    5    6 1
    12    5    7 1
    13    7   27 1
    14    7   28 1
    15    7   29 1
    16    8   30 1
    17    8   31 1
    18    8   32 1
    19    9   10 1
    20    9   11 1
    21    9   33 1
    22   10   34 1
    23   10   35 1
    24   10   36 1
    25   11   12 am
    26   11   37 1
    27   12   13 2
    28   12   14 am
    29   14   15 1
    30   14   38 1
    31   15   20 ar
    32   15   16 ar
    33   16   17 ar
    34   16   39 1
    35   17   18 ar
    36   17   40 1
    37   18   19 ar
    38   18   22 1
    39   19   20 ar
    40   19   21 1
    41   20   41 1
    42   22   23 3
@<TRIPOS>MOLECULE
ZINC67472794
   45    48     0     0     0
SMALL
USER_CHARGES

@<TRIPOS>ATOM
      1 C1          0.0203    1.4165    0.1817 C.ar      1 <0>        -0.1414
      2 C2          1.2147    2.0744    0.4113 C.ar      1 <0>        -0.0985
      3 C3          2.4107    1.3899    0.3187 C.ar      1 <0>        -0.1551
      4 C4          2.4129    0.0395   -0.0054 C.ar      1 <0>         0.1602
      5 C5          1.2117   -0.6183   -0.2354 C.ar      1 <0>        -0.1423
      6 C6          0.0191    0.0719   -0.1413 C.ar      1 <0>        -0.0995
      7 N1          3.6231   -0.6568   -0.1004 N.am      1 <0>        -0.6808
      8 C7          3.6448   -1.9950    0.0580 C.2       1 <0>         0.7105
      9 O1          2.6018   -2.6165    0.1230 O.2       1 <0>        -0.5657
     10 N2          4.8227   -2.6444    0.1444 N.am      1 <0>        -0.6218
     11 C8          6.0831   -1.8972    0.2532 C.3       1 <0>         0.1053
     12 C9          6.8504   -2.4006    1.4798 C.3       1 <0>        -0.1258
     13 C10         7.0256   -3.9177    1.3798 C.3       1 <0>        -0.0364
     14 H1          7.5631   -4.1615    0.4634 H         1 <0>         0.0924
     15 C11         5.6515   -4.5913    1.3596 C.3       1 <0>         0.1014
     16 H2          5.1038   -4.3278    2.2644 H         1 <0>         0.0639
     17 C12         4.8702   -4.1128    0.1377 C.3       1 <0>         0.0966
     18 O2          5.8165   -6.0094    1.2979 O.3       1 <0>        -0.5530
     19 C13         7.8093   -4.4120    2.5683 C.ar      1 <0>        -0.0562
     20 C14         7.3188   -4.2196    3.8464 C.ar      1 <0>        -0.1045
     21 C15         8.0338   -4.6717    4.9397 C.ar      1 <0>        -0.0966
     22 C16         9.2451   -5.3188    4.7566 C.ar      1 <0>         0.0282
     23 C17         9.7393   -5.5125    3.4691 C.ar      1 <0>         0.0347
     24 C18         9.0145   -5.0618    2.3777 C.ar      1 <0>        -0.0881
     25 O3         10.9345   -6.1663    3.5543 O.3       1 <0>        -0.3090
     26 C19        11.3626   -6.0082    4.9200 C.3       1 <0>         0.2132
     27 O4         10.1307   -5.8512    5.6485 O.3       1 <0>        -0.3095
     28 H3         -0.9139    1.9528    0.2591 H         1 <0>         0.1219
     29 H4          1.2123    3.1246    0.6629 H         1 <0>         0.1255
     30 H5          3.3432    1.9043    0.4978 H         1 <0>         0.1229
     31 H6          1.2102   -1.6683   -0.4879 H         1 <0>         0.1626
     32 H7         -0.9154   -0.4391   -0.3200 H         1 <0>         0.1247
     33 H8          4.4463   -0.1763   -0.2804 H         1 <0>         0.4073
     34 H9          6.6817   -2.0579   -0.6435 H         1 <0>         0.0793
     35 H10         5.8693   -0.8345    0.3667 H         1 <0>         0.0832
     36 H11         7.8295   -1.9231    1.5177 H         1 <0>         0.0914
     37 H12         6.2914   -2.1577    2.3835 H         1 <0>         0.0765
     38 H13         3.8564   -4.5114    0.1751 H         1 <0>         0.1008
     39 H14         5.3676   -4.4582   -0.7686 H         1 <0>         0.0784
     40 H15         4.9844   -6.5018    1.2820 H         1 <0>         0.3830
     41 H16         6.3750   -3.7148    3.9911 H         1 <0>         0.1333
     42 H17         7.6482   -4.5201    5.9371 H         1 <0>         0.1353
     43 H18         9.3931   -5.2147    1.3779 H         1 <0>         0.1342
     44 H19        11.8976   -6.8954    5.2588 H         1 <0>         0.1325
     45 H20        11.9859   -5.1202    5.0256 H         1 <0>         0.0850
@<TRIPOS>BOND
     1    1    6 ar
     2    1    2 ar
     3    1   28 1
     4    2    3 ar
     5    2   29 1
     6    3    4 ar
     7    3   30 1
     8    4    5 ar
     9    4    7 1
    10    5    6 ar
    11    5   31 1
    12    6   32 1
    13    7    8 am
    14    7   33 1
    15    8    9 2
    16    8   10 am
    17   10   17 1
    18   10   11 1
    19   11   12 1
    20   11   34 1
    21   11   35 1
    22   12   13 1
    23   12   36 1
    24   12   37 1
    25   13   14 1
    26   13   15 1
    27   13   19 1
    28   15   16 1
    29   15   17 1
    30   15   18 1
    31   17   38 1
    32   17   39 1
    33   18   40 1
    34   19   24 ar
    35   19   20 ar
    36   20   21 ar
    37   20   41 1
    38   21   22 ar
    39   21   42 1
    40   22   27 1
    41   22   23 ar
    42   23   24 ar
    43   23   25 1
    44   24   43 1
    45   25   26 1
    46   26   27 1
    47   26   44 1
    48   26   45 1
@<TRIPOS>MOLECULE
ZINC02730944
   42    44     0     0     0
SMALL
USER_CHARGES
N-(2,3-dimethylphenyl)-5-(1,3-dimethylpyrazol-4-yl)-isoxazole-4-sulfonamide
@<TRIPOS>ATOM
      1 C1          1.3968    9.0085    4.2598 C.3       1 <0>        -0.1193
      2 C2          1.7687    7.5619    4.0594 C.ar      1 <0>        -0.0576
      3 C3          2.8973    7.2335    3.3305 C.ar      1 <0>        -0.1295
      4 C4          3.2420    5.9076    3.1438 C.ar      1 <0>        -0.0826
      5 C5          2.4598    4.9062    3.6855 C.ar      1 <0>        -0.1704
      6 C6          1.3258    5.2325    4.4180 C.ar      1 <0>         0.1667
      7 C7          0.9793    6.5657    4.5988 C.ar      1 <0>        -0.1036
      8 C8         -0.2537    6.9243    5.3877 C.3       1 <0>        -0.1155
      9 N1          0.5324    4.2224    4.9668 N.pl3     1 <0>        -1.0568
     10 S1          1.2352    2.8369    5.5402 S.o2      1 <0>         2.7221
     11 O1          0.1846    2.0337    6.0601 O.2       1 <0>        -0.9418
     12 O2          2.3464    3.2413    6.3282 O.2       1 <0>        -0.9258
     13 C9          1.8905    1.9721    4.1519 C.2       1 <0>        -0.8136
     14 C10         3.2380    1.6654    3.8765 C.2       1 <0>         0.0895
     15 N2          3.2490    1.0191    2.7449 N.2       1 <0>        -0.3529
     16 O3          2.1360    0.8794    2.2940 O.3       1 <0>         0.1043
     17 C11         1.2091    1.4422    3.0894 C.2       1 <0>         0.2211
     18 C12        -0.2516    1.4761    2.8649 C.2       1 <0>        -0.2267
     19 C13        -1.1803    2.1450    3.6314 C.2       1 <0>         0.1197
     20 N3         -2.3910    1.9183    3.0867 N.pl3     1 <0>        -0.3466
     21 N4         -2.2229    1.1021    1.9622 N.2       1 <0>        -0.2812
     22 C14        -0.9534    0.8295    1.8255 C.2       1 <0>         0.1277
     23 C15        -0.3431   -0.0220    0.7422 C.3       1 <0>        -0.0858
     24 C16        -3.6660    2.4419    3.5830 C.3       1 <0>         0.0883
     25 H1          0.7445    9.3316    3.4485 H         1 <0>         0.0740
     26 H2          0.8768    9.1215    5.2111 H         1 <0>         0.0714
     27 H3          2.3000    9.6186    4.2648 H         1 <0>         0.0709
     28 H4          3.5106    8.0145    2.9058 H         1 <0>         0.1282
     29 H5          4.1239    5.6546    2.5741 H         1 <0>         0.1306
     30 H6          2.7300    3.8707    3.5399 H         1 <0>         0.1264
     31 H7          0.0086    7.0394    6.4394 H         1 <0>         0.0772
     32 H8         -0.6661    7.8605    5.0115 H         1 <0>         0.0757
     33 H9         -0.9953    6.1324    5.2827 H         1 <0>         0.0593
     34 H10        -0.4302    4.3325    5.0121 H         1 <0>         0.4208
     35 H11         4.0944    1.9165    4.4847 H         1 <0>         0.2096
     36 H12        -0.9753    2.7414    4.5082 H         1 <0>         0.1737
     37 H13        -0.3063   -1.0598    1.0733 H         1 <0>         0.0897
     38 H14         0.6673    0.3280    0.5308 H         1 <0>         0.0872
     39 H15        -0.9490    0.0499   -0.1611 H         1 <0>         0.0860
     40 H16        -3.9143    3.3594    3.0495 H         1 <0>         0.0889
     41 H17        -4.4505    1.7030    3.4197 H         1 <0>         0.1017
     42 H18        -3.5818    2.6530    4.6491 H         1 <0>         0.0995
@<TRIPOS>BOND
     1    1    2 1
     2    1   25 1
     3    1   26 1
     4    1   27 1
     5    2    7 ar
     6    2    3 ar
     7    3    4 ar
     8    3   28 1
     9    4    5 ar
    10    4   29 1
    11    5    6 ar
    12    5   30 1
    13    6    7 ar
    14    6    9 1
    15    7    8 1
    16    8   31 1
    17    8   32 1
    18    8   33 1
    19    9   10 1
    20    9   34 1
    21   10   11 2
    22   10   12 2
    23   10   13 1
    24   13   17 2
    25   13   14 1
    26   14   15 2
    27   14   35 1
    28   15   16 1
    29   16   17 1
    30   17   18 1
    31   18   22 1
    32   18   19 2
    33   19   20 1
    34   19   36 1
    35   20   21 1
    36   20   24 1
    37   21   22 2
    38   22   23 1
    39   23   37 1
    40   23   38 1
    41   23   39 1
    42   24   40 1
    43   24   41 1
    44   24   42 1
@<TRIPOS>MOLECULE
ZINC23143361
   45    48     0     0     0
SMALL
USER_CHARGES
1-[6-(2-furyl)pyridazin-3-yl]-N-(2-pyridyl)piperidine-4-carboxamide
@<TRIPOS>ATOM
      1 C1          1.0905    2.1206    0.0088 C.ar      1 <0>        -0.0479
      2 C2         -0.0471    1.3248    0.0150 C.ar      1 <0>        -0.2072
      3 C3          0.0890   -0.0492    0.0041 C.ar      1 <0>         0.1324
      4 N1          1.2828   -0.6106   -0.0124 N.ar      1 <0>        -0.4809
      5 C4          2.3906    0.1136   -0.0183 C.ar      1 <0>         0.3626
      6 C5          2.3283    1.5026   -0.0081 C.ar      1 <0>        -0.2105
      7 N2          3.6312   -0.5220   -0.0354 N.am      1 <0>        -0.6766
      8 C6          3.7018   -1.8646    0.0584 C.2       1 <0>         0.5098
      9 O1          2.6855   -2.5264    0.0648 O.2       1 <0>        -0.4669
     10 C7          5.0437   -2.5436    0.1555 C.3       1 <0>        -0.1084
     11 C8          5.8727   -2.2190   -1.0902 C.3       1 <0>        -0.1096
     12 C9          7.2091   -2.9612   -1.0152 C.3       1 <0>         0.0573
     13 N3          6.9649   -4.4066   -0.9292 N.pl3     1 <0>        -0.4665
     14 C10         6.2116   -4.7466    0.2846 C.3       1 <0>         0.0601
     15 C11         4.8449   -4.0590    0.2477 C.3       1 <0>        -0.1012
     16 C12         8.1581   -5.1181   -0.9908 C.ar      1 <0>         0.2556
     17 C13         9.0238   -4.9382   -2.0718 C.ar      1 <0>        -0.1259
     18 C14        10.1987   -5.6660   -2.0910 C.ar      1 <0>        -0.0821
     19 C15        10.4479   -6.5396   -1.0235 C.ar      1 <0>         0.1224
     20 N4          9.5644   -6.6444   -0.0377 N.ar      1 <0>        -0.1989
     21 N5          8.4769   -5.9629   -0.0214 N.ar      1 <0>        -0.2683
     22 C16        11.6887   -7.3402   -0.9950 C.2       1 <0>         0.0133
     23 C17        12.0513   -8.2160   -0.0197 C.2       1 <0>        -0.1445
     24 C18        13.2971   -8.7533   -0.3996 C.2       1 <0>        -0.2172
     25 C19        13.6344   -8.1786   -1.5710 C.2       1 <0>        -0.0172
     26 O2         12.6606   -7.3256   -1.9277 O.3       1 <0>        -0.1711
     27 H1          1.0111    3.1976    0.0174 H         1 <0>         0.1374
     28 H2         -1.0283    1.7757    0.0326 H         1 <0>         0.1356
     29 H3         -0.7931   -0.6723    0.0088 H         1 <0>         0.1585
     30 H4          3.2339    2.0911   -0.0130 H         1 <0>         0.1349
     31 H5          4.5525    0.0723   -0.1255 H         1 <0>         0.4396
     32 H6          5.5563   -2.1750    1.0562 H         1 <0>         0.1013
     33 H7          5.3242   -2.5376   -1.9889 H         1 <0>         0.0858
     34 H8          6.0552   -1.1353   -1.1370 H         1 <0>         0.0817
     35 H9          7.8007   -2.7432   -1.9166 H         1 <0>         0.0919
     36 H10         7.7629   -2.6302   -0.1243 H         1 <0>         0.0553
     37 H11         6.0720   -5.8365    0.3362 H         1 <0>         0.0976
     38 H12         6.7691   -4.4061    1.1696 H         1 <0>         0.0575
     39 H13         4.2862   -4.3004    1.1640 H         1 <0>         0.0855
     40 H14         4.2801   -4.4087   -0.6290 H         1 <0>         0.0846
     41 H15         8.7825   -4.2506   -2.8689 H         1 <0>         0.1568
     42 H16        10.9029   -5.5649   -2.9036 H         1 <0>         0.1568
     43 H17        11.4915   -8.4549    0.8724 H         1 <0>         0.1597
     44 H18        13.8745   -9.4845    0.1466 H         1 <0>         0.1561
     45 H19        14.5378   -8.3722   -2.1302 H         1 <0>         0.2108
@<TRIPOS>BOND
     1    1    6 ar
     2    1    2 ar
     3    1   27 1
     4    2    3 ar
     5    2   28 1
     6    3    4 ar
     7    3   29 1
     8    4    5 ar
     9    5    6 ar
    10    5    7 1
    11    6   30 1
    12    7    8 am
    13    7   31 1
    14    8    9 2
    15    8   10 1
    16   10   15 1
    17   10   11 1
    18   10   32 1
    19   11   12 1
    20   11   33 1
    21   11   34 1
    22   12   13 1
    23   12   35 1
    24   12   36 1
    25   13   14 1
    26   13   16 1
    27   14   15 1
    28   14   37 1
    29   14   38 1
    30   15   39 1
    31   15   40 1
    32   16   21 ar
    33   16   17 ar
    34   17   18 ar
    35   17   41 1
    36   18   19 ar
    37   18   42 1
    38   19   20 ar
    39   19   22 1
    40   20   21 ar
    41   22   26 1
    42   22   23 2
    43   23   24 1
    44   23   43 1
    45   24   25 2
    46   24   44 1
    47   25   26 1
    48   25   45 1
@<TRIPOS>MOLECULE
ZINC40992655
   40    43     0     0     0
SMALL
USER_CHARGES

@<TRIPOS>ATOM
      1 C1         -0.0184    1.5028    0.0103 C.3       1 <0>        -0.1189
      2 C2          0.0021   -0.0041    0.0020 C.ar      1 <0>        -0.0899
      3 C3          0.0058   -0.6878   -1.2011 C.ar      1 <0>        -0.0842
      4 C4          0.0245   -2.0710   -1.2177 C.ar      1 <0>        -0.1194
      5 C5          0.0401   -2.7781   -0.0330 C.ar      1 <0>        -0.0889
      6 C6          0.0369   -2.0946    1.1841 C.ar      1 <0>        -0.1346
      7 C7          0.0228   -0.6985    1.1936 C.ar      1 <0>        -0.0519
      8 C8          0.0531   -2.8454    2.4570 C.2       1 <0>         0.5658
      9 O1          0.0503   -2.2475    3.5154 O.2       1 <0>        -0.4917
     10 N1          0.0709   -4.1930    2.4444 N.am      1 <0>        -0.6061
     11 C9          0.0861   -4.8983    3.6402 C.2       1 <0>         0.3188
     12 N2          0.1099   -6.2030    3.8402 N.2       1 <0>        -0.5321
     13 C10         0.1223   -6.7112    5.0634 C.2       1 <0>         0.1103
     14 C11         0.1104   -5.8683    6.1399 C.2       1 <0>        -0.2333
     15 S1          0.0867   -4.2808    5.3175 S.3       1 <0>         0.1351
     16 C12         0.1485   -8.1804    5.2633 C.ar      1 <0>        -0.0083
     17 C13         0.1552   -8.7097    6.5532 C.ar      1 <0>        -0.0825
     18 C14         0.1791  -10.0761    6.7361 C.ar      1 <0>        -0.0982
     19 C15         0.1969  -10.9252    5.6368 C.ar      1 <0>         0.1307
     20 C16         0.1903  -10.4005    4.3506 C.ar      1 <0>        -0.1207
     21 C17         0.1607   -9.0350    4.1617 C.ar      1 <0>        -0.0635
     22 N3          0.2221  -12.3144    5.8259 N.pl3     1 <0>        -0.3274
     23 C18         0.2472  -13.2714    4.8731 C.2       1 <0>         0.2271
     24 N4          0.2654  -14.4271    5.4842 N.2       1 <0>        -0.3278
     25 N5          0.2536  -14.2660    6.7582 N.2       1 <0>        -0.0318
     26 N6          0.2329  -13.0096    7.0479 N.2       1 <0>        -0.0755
     27 H1          1.0042    1.8801    0.0026 H         1 <0>         0.0761
     28 H2         -0.5455    1.8639   -0.8728 H         1 <0>         0.0717
     29 H3         -0.5286    1.8543    0.9071 H         1 <0>         0.0717
     30 H4         -0.0064   -0.1392   -2.1313 H         1 <0>         0.1322
     31 H5          0.0265   -2.5986   -2.1600 H         1 <0>         0.1349
     32 H6          0.0543   -3.8579   -0.0473 H         1 <0>         0.1275
     33 H7          0.0244   -0.1636    2.1318 H         1 <0>         0.1405
     34 H8          0.0732   -4.6701    1.5998 H         1 <0>         0.4269
     35 H9          0.1171   -6.0979    7.1952 H         1 <0>         0.2022
     36 H10         0.1420   -8.0500    7.4082 H         1 <0>         0.1420
     37 H11         0.1842  -10.4866    7.7351 H         1 <0>         0.1464
     38 H12         0.2043  -11.0629    3.4977 H         1 <0>         0.1385
     39 H13         0.1514   -8.6277    3.1615 H         1 <0>         0.1486
     40 H14         0.2511  -13.1117    3.8050 H         1 <0>         0.2401
@<TRIPOS>BOND
     1    1    2 1
     2    1   27 1
     3    1   28 1
     4    1   29 1
     5    2    7 ar
     6    2    3 ar
     7    3    4 ar
     8    3   30 1
     9    4    5 ar
    10    4   31 1
    11    5    6 ar
    12    5   32 1
    13    6    7 ar
    14    6    8 1
    15    7   33 1
    16    8    9 2
    17    8   10 am
    18   10   11 1
    19   10   34 1
    20   11   15 1
    21   11   12 2
    22   12   13 1
    23   13   14 2
    24   13   16 1
    25   14   15 1
    26   14   35 1
    27   16   21 ar
    28   16   17 ar
    29   17   18 ar
    30   17   36 1
    31   18   19 ar
    32   18   37 1
    33   19   20 ar
    34   19   22 1
    35   20   21 ar
    36   20   38 1
    37   21   39 1
    38   22   26 1
    39   22   23 1
    40   23   24 2
    41   23   40 1
    42   24   25 1
    43   25   26 2
@<TRIPOS>MOLECULE
ZINC62164847
   49    52     0     0     0
SMALL
USER_CHARGES

@<TRIPOS>ATOM
      1 C1         -1.2528    1.1831    0.1769 C.3       1 <0>        -0.1168
      2 C2         -0.5724   -0.1582    0.0816 C.ar      1 <0>        -0.1095
      3 C3         -0.5550   -0.8409   -1.1192 C.ar      1 <0>        -0.1039
      4 C4          0.0690   -2.0715   -1.2075 C.ar      1 <0>        -0.1284
      5 C5          0.6780   -2.6228   -0.0948 C.ar      1 <0>        -0.1087
      6 C6          0.6645   -1.9452    1.1084 C.ar      1 <0>        -0.1166
      7 C7          0.0426   -0.7065    1.1992 C.ar      1 <0>         0.1388
      8 N1          0.0317   -0.0150    2.4155 N.am      1 <0>        -0.6703
      9 C8         -0.0519   -0.6946    3.5764 C.2       1 <0>         0.5213
     10 O1         -0.0358   -1.9073    3.5717 O.2       1 <0>        -0.5116
     11 C9         -0.1654    0.0524    4.8803 C.3       1 <0>        -0.1217
     12 H1         -1.0653    0.6674    4.8701 H         1 <0>         0.1065
     13 C10        -0.2429   -0.9472    6.0366 C.3       1 <0>        -0.1016
     14 C11        -0.3912   -0.1903    7.3584 C.3       1 <0>        -0.1362
     15 C12         0.8358    0.7017    7.5719 C.3       1 <0>         0.1163
     16 N2          1.0015    1.5673    6.3962 N.pl3     1 <0>        -0.5927
     17 C13         1.0637    0.9478    5.0653 C.3       1 <0>         0.1314
     18 C14         1.0973    2.9484    6.5402 C.ar      1 <0>         0.3391
     19 C15         1.2484    3.5109    7.8084 C.ar      1 <0>        -0.1479
     20 C16         1.3392    4.8889    7.9004 C.ar      1 <0>        -0.0830
     21 C17         1.2739    5.6292    6.7205 C.ar      1 <0>         0.2352
     22 N3          1.1295    5.0099    5.5615 N.ar      1 <0>        -0.2053
     23 N4          1.0507    3.7318    5.4741 N.ar      1 <0>        -0.2775
     24 N5          1.3607    7.0261    6.7632 N.pl3     1 <0>        -0.4024
     25 C18         1.2115    7.8850    5.7046 C.2       1 <0>        -0.0270
     26 C19         1.3717    9.1313    6.1883 C.2       1 <0>        -0.0264
     27 N6          1.6122    9.0423    7.5048 N.2       1 <0>        -0.4747
     28 C20         1.6029    7.7872    7.8624 C.2       1 <0>         0.1885
     29 H2         -0.5368    1.9711   -0.0565 H         1 <0>         0.0731
     30 H3         -2.0799    1.2221   -0.5320 H         1 <0>         0.0722
     31 H4         -1.6339    1.3261    1.1880 H         1 <0>         0.0628
     32 H5         -1.0296   -0.4131   -1.9899 H         1 <0>         0.1262
     33 H6          0.0807   -2.6036   -2.1472 H         1 <0>         0.1238
     34 H7          1.1643   -3.5844   -0.1669 H         1 <0>         0.1254
     35 H8          1.1399   -2.3763    1.9770 H         1 <0>         0.1384
     36 H9          0.0843    0.9536    2.4232 H         1 <0>         0.4121
     37 H10        -1.1031   -1.6012    5.8941 H         1 <0>         0.0791
     38 H11         0.6679   -1.5456    6.0609 H         1 <0>         0.0765
     39 H12        -1.2887    0.4273    7.3253 H         1 <0>         0.0707
     40 H13        -0.4698   -0.9033    8.1791 H         1 <0>         0.0876
     41 H14         0.6907    1.3161    8.4604 H         1 <0>         0.0879
     42 H15         1.7225    0.0800    7.6958 H         1 <0>         0.0783
     43 H16         1.9693    0.3465    4.9846 H         1 <0>         0.0765
     44 H17         1.0687    1.7242    4.3002 H         1 <0>         0.1015
     45 H18         1.2929    2.8900    8.6910 H         1 <0>         0.1608
     46 H19         1.4566    5.3761    8.8571 H         1 <0>         0.1592
     47 H20         1.0056    7.6138    4.6797 H         1 <0>         0.1838
     48 H21         1.3163   10.0450    5.6150 H         1 <0>         0.1783
     49 H22         1.7636    7.4156    8.8637 H         1 <0>         0.2110
@<TRIPOS>BOND
     1    1    2 1
     2    1   29 1
     3    1   30 1
     4    1   31 1
     5    2    7 ar
     6    2    3 ar
     7    3    4 ar
     8    3   32 1
     9    4    5 ar
    10    4   33 1
    11    5    6 ar
    12    5   34 1
    13    6    7 ar
    14    6   35 1
    15    7    8 1
    16    8    9 am
    17    8   36 1
    18    9   10 2
    19    9   11 1
    20   11   12 1
    21   11   17 1
    22   11   13 1
    23   13   14 1
    24   13   37 1
    25   13   38 1
    26   14   15 1
    27   14   39 1
    28   14   40 1
    29   15   16 1
    30   15   41 1
    31   15   42 1
    32   16   17 1
    33   16   18 1
    34   17   43 1
    35   17   44 1
    36   18   23 ar
    37   18   19 ar
    38   19   20 ar
    39   19   45 1
    40   20   21 ar
    41   20   46 1
    42   21   22 ar
    43   21   24 1
    44   22   23 ar
    45   24   28 1
    46   24   25 1
    47   25   26 2
    48   25   47 1
    49   26   27 1
    50   26   48 1
    51   27   28 2
    52   28   49 1
@<TRIPOS>MOLECULE
ZINC66985184
   57    59     0     0     0
SMALL
USER_CHARGES

@<TRIPOS>ATOM
      1 C1          2.7130    2.6598   -4.0738 C.3       1 <0>        -0.0989
      2 C2          1.8018    2.6955   -5.2735 C.2       1 <0>         0.1014
      3 C3          0.7278    1.8996   -5.4836 C.2       1 <0>        -0.2513
      4 C4          0.1606    2.2572   -6.7110 C.2       1 <0>         0.0548
      5 N1          0.8686    3.2329   -7.2196 N.2       1 <0>        -0.2905
      6 N2          1.9071    3.5310   -6.3280 N.pl3     1 <0>        -0.3698
      7 C5          2.9291    4.5647   -6.5099 C.3       1 <0>         0.0980
      8 C6          0.2310    0.8185   -4.5587 C.3       1 <0>         0.2431
      9 H1          1.0799    0.3384   -4.0718 H         1 <0>         0.0934
     10 C7         -0.6834    1.4350   -3.4981 C.3       1 <0>        -0.1566
     11 N3         -0.5174   -0.1776   -5.3293 N.am      1 <0>        -0.7378
     12 C8         -0.6247   -1.4412   -4.8729 C.2       1 <0>         0.7119
     13 O1         -0.0255   -1.7783   -3.8701 O.2       1 <0>        -0.5835
     14 N4         -1.3962   -2.3311   -5.5281 N.am      1 <0>        -0.6299
     15 C9         -1.6157   -3.6770   -4.9802 C.3       1 <0>         0.1173
     16 C10        -3.1257   -3.9160   -4.8576 C.3       1 <0>         0.0966
     17 N5         -3.7629   -3.5577   -6.1326 N.am      1 <0>        -0.6141
     18 C11        -3.5434   -2.2118   -6.6805 C.3       1 <0>         0.0884
     19 C12        -2.0379   -1.9710   -6.8003 C.3       1 <0>         0.0962
     20 C13        -4.5343   -4.4476   -6.7878 C.2       1 <0>         0.5208
     21 O2         -4.7921   -5.5177   -6.2783 O.2       1 <0>        -0.5327
     22 C14        -5.0768   -4.1131   -8.1534 C.3       1 <0>        -0.1050
     23 C15        -6.2122   -3.0968   -8.0163 C.3       1 <0>        -0.1140
     24 C16        -6.7629   -2.7572   -9.4027 C.3       1 <0>        -0.1175
     25 C17        -7.2944   -4.0293  -10.0660 C.3       1 <0>        -0.1234
     26 C18        -6.1590   -5.0456  -10.2032 C.3       1 <0>        -0.1199
     27 C19        -5.6083   -5.3853   -8.8167 C.3       1 <0>        -0.1005
     28 H2          2.3295    3.3318   -3.3060 H         1 <0>         0.0845
     29 H3          2.7553    1.6444   -3.6797 H         1 <0>         0.0898
     30 H4          3.7134    2.9774   -4.3678 H         1 <0>         0.0733
     31 H5         -0.7109    1.8056   -7.1615 H         1 <0>         0.1768
     32 H6          3.7857    4.1407   -7.0338 H         1 <0>         0.0766
     33 H7          2.5152    5.3858   -7.0952 H         1 <0>         0.0916
     34 H8          3.2468    4.9369   -5.5359 H         1 <0>         0.0887
     35 H9         -1.5323    1.9151   -3.9850 H         1 <0>         0.0563
     36 H10        -1.0427    0.6531   -2.8292 H         1 <0>         0.0620
     37 H11        -0.1265    2.1762   -2.9247 H         1 <0>         0.0650
     38 H12        -0.9357    0.0723   -6.1681 H         1 <0>         0.3923
     39 H13        -1.1809   -4.4197   -5.6491 H         1 <0>         0.0711
     40 H14        -1.1524   -3.7515   -3.9964 H         1 <0>         0.1081
     41 H15        -3.3131   -4.9670   -4.6376 H         1 <0>         0.1057
     42 H16        -3.5307   -3.2946   -4.0589 H         1 <0>         0.0730
     43 H17        -4.0066   -2.1373   -7.6643 H         1 <0>         0.1038
     44 H18        -3.9781   -1.4691   -6.0115 H         1 <0>         0.0777
     45 H19        -1.8534   -0.9190   -7.0181 H         1 <0>         0.0882
     46 H20        -1.6339   -2.5894   -7.6018 H         1 <0>         0.0776
     47 H21        -4.2815   -3.6889   -8.7663 H         1 <0>         0.0940
     48 H22        -7.0075   -3.5210   -7.4034 H         1 <0>         0.0702
     49 H23        -5.8335   -2.1905   -7.5437 H         1 <0>         0.0687
     50 H24        -7.5718   -2.0332   -9.3050 H         1 <0>         0.0672
     51 H25        -5.9676   -2.3329  -10.0156 H         1 <0>         0.0646
     52 H26        -8.0897   -4.4536   -9.4531 H         1 <0>         0.0635
     53 H27        -7.6868   -3.7874  -11.0538 H         1 <0>         0.0640
     54 H28        -6.5377   -5.9519  -10.6757 H         1 <0>         0.0667
     55 H29        -5.3637   -4.6214  -10.8161 H         1 <0>         0.0624
     56 H30        -4.7994   -6.1093   -8.9144 H         1 <0>         0.0665
     57 H31        -6.4036   -5.8095   -8.2038 H         1 <0>         0.0733
@<TRIPOS>BOND
     1    1    2 1
     2    1   28 1
     3    1   29 1
     4    1   30 1
     5    2    6 1
     6    2    3 2
     7    3    4 1
     8    3    8 1
     9    4    5 2
    10    4   31 1
    11    5    6 1
    12    6    7 1
    13    7   32 1
    14    7   33 1
    15    7   34 1
    16    8    9 1
    17    8   10 1
    18    8   11 1
    19   10   35 1
    20   10   36 1
    21   10   37 1
    22   11   12 am
    23   11   38 1
    24   12   13 2
    25   12   14 am
    26   14   19 1
    27   14   15 1
    28   15   16 1
    29   15   39 1
    30   15   40 1
    31   16   17 1
    32   16   41 1
    33   16   42 1
    34   17   18 1
    35   17   20 am
    36   18   19 1
    37   18   43 1
    38   18   44 1
    39   19   45 1
    40   19   46 1
    41   20   21 2
    42   20   22 1
    43   22   27 1
    44   22   23 1
    45   22   47 1
    46   23   24 1
    47   23   48 1
    48   23   49 1
    49   24   25 1
    50   24   50 1
    51   24   51 1
    52   25   26 1
    53   25   52 1
    54   25   53 1
    55   26   27 1
    56   26   54 1
    57   26   55 1
    58   27   56 1
    59   27   57 1
@<TRIPOS>MOLECULE
ZINC20601897
   49    50     0     0     0
SMALL
USER_CHARGES
[2-[5-[(2-phosphonophenyl)amino]pentylamino]phenyl]phosphonic acid
@<TRIPOS>ATOM
      1 C1          1.4215    0.1035    3.8389 C.ar      1 <0>        -0.0659
      2 C2          0.7729    0.5504    4.9758 C.ar      1 <0>        -0.2139
      3 C3         -0.3627    1.3314    4.8658 C.ar      1 <0>        -0.0052
      4 C4         -0.8535    1.6676    3.6192 C.ar      1 <0>        -0.7480
      5 C5         -0.2046    1.2206    2.4755 C.ar      1 <0>         0.2626
      6 C6          0.9335    0.4319    2.5897 C.ar      1 <0>        -0.2305
      7 N1         -0.6984    1.5583    1.2133 N.pl3     1 <0>        -0.7618
      8 C7         -0.0127    1.0858    0.0080 C.3       1 <0>         0.1290
      9 C8         -0.7527    1.5927   -1.2315 C.3       1 <0>        -0.1320
     10 C9         -0.0366    1.0992   -2.4903 C.3       1 <0>        -0.1092
     11 C10        -0.7766    1.6061   -3.7298 C.3       1 <0>        -0.1320
     12 C11        -0.0604    1.1126   -4.9886 C.3       1 <0>         0.1290
     13 N2         -0.7690    1.5980   -6.1755 N.pl3     1 <0>        -0.7618
     14 C12        -0.2994    1.2739   -7.4504 C.ar      1 <0>         0.2626
     15 C13         0.8428    0.4962   -7.5948 C.ar      1 <0>        -0.2305
     16 C14         1.3018    0.1740   -8.8566 C.ar      1 <0>        -0.0659
     17 C15         0.6317    0.6330   -9.9760 C.ar      1 <0>        -0.2139
     18 C16        -0.5026    1.4112   -9.8360 C.ar      1 <0>        -0.0052
     19 C17        -0.9699    1.7331   -8.5767 C.ar      1 <0>        -0.7480
     20 P1         -2.4575    2.7551   -8.3941 P.3       1 <0>         2.3210
     21 O1         -2.0720    4.1832   -8.3458 O.2       1 <0>        -1.0903
     22 O2         -3.4371    2.5057   -9.6472 O.3       1 <0>        -1.1200
     23 O3         -3.2175    2.3580   -7.0314 O.3       1 <0>        -0.9383
     24 P2         -2.3441    2.6914    3.4760 P.3       1 <0>         2.3210
     25 O4         -3.5395    1.8197    3.4385 O.2       1 <0>        -1.0903
     26 O5         -2.4402    3.6797    4.7434 O.3       1 <0>        -1.1201
     27 O6         -2.2706    3.5601    2.1225 O.3       1 <0>        -0.9383
     28 H1          2.3080   -0.5067    3.9284 H         1 <0>         0.1091
     29 H2          1.1541    0.2884    5.9518 H         1 <0>         0.1097
     30 H3         -0.8668    1.6787    5.7556 H         1 <0>         0.1254
     31 H4          1.4379    0.0789    1.7023 H         1 <0>         0.1104
     32 H5         -1.6022    2.1790    1.1243 H         1 <0>         0.4291
     33 H6          1.0193    1.4665    0.0002 H         1 <0>         0.0506
     34 H7          0.0022   -0.0141    0.0020 H         1 <0>         0.0506
     35 H8         -1.7847    1.2120   -1.2236 H         1 <0>         0.0732
     36 H9         -0.7676    2.6926   -1.2255 H         1 <0>         0.0750
     37 H10         0.9954    1.4799   -2.4981 H         1 <0>         0.0641
     38 H11        -0.0217   -0.0007   -2.4963 H         1 <0>         0.0641
     39 H12        -1.8086    1.2254   -3.7220 H         1 <0>         0.0750
     40 H13        -0.7915    2.7060   -3.7237 H         1 <0>         0.0733
     41 H14         0.9716    1.4933   -4.9963 H         1 <0>         0.0506
     42 H15        -0.0455    0.0127   -4.9946 H         1 <0>         0.0506
     43 H16        -1.6708    2.2177   -6.0626 H         1 <0>         0.4291
     44 H17         1.3691    0.1411   -6.7211 H         1 <0>         0.1104
     45 H18         2.1877   -0.4333   -8.9695 H         1 <0>         0.1091
     46 H19         0.9954    0.3833  -10.9618 H         1 <0>         0.1097
     47 H20        -1.0235    1.7680  -10.7122 H         1 <0>         0.1254
     48 H21        -4.1467    2.8747   -6.7493 H         1 <0>         0.4507
     49 H22        -3.0912    4.2454    1.8636 H         1 <0>         0.4508
@<TRIPOS>BOND
     1    1    6 ar
     2    1    2 ar
     3    1   28 1
     4    2    3 ar
     5    2   29 1
     6    3    4 ar
     7    3   30 1
     8    4    5 ar
     9    4   24 1
    10    5    6 ar
    11    5    7 1
    12    6   31 1
    13    7    8 1
    14    7   32 1
    15    8    9 1
    16    8   33 1
    17    8   34 1
    18    9   10 1
    19    9   35 1
    20    9   36 1
    21   10   11 1
    22   10   37 1
    23   10   38 1
    24   11   12 1
    25   11   39 1
    26   11   40 1
    27   12   13 1
    28   12   41 1
    29   12   42 1
    30   13   14 1
    31   13   43 1
    32   14   19 ar
    33   14   15 ar
    34   15   16 ar
    35   15   44 1
    36   16   17 ar
    37   16   45 1
    38   17   18 ar
    39   17   46 1
    40   18   19 ar
    41   18   47 1
    42   19   20 1
    43   20   21 2
    44   20   22 1
    45   20   23 1
    46   23   48 1
    47   24   25 2
    48   24   26 1
    49   24   27 1
    50   27   49 1
@<TRIPOS>MOLECULE
ZINC36743273
   29    30     0     0     0
SMALL
USER_CHARGES

@<TRIPOS>ATOM
      1 C1         -0.0168    1.3866    0.0097 C.ar      1 <0>        -0.0982
      2 C2          1.1648    2.1002    0.0022 C.ar      1 <0>        -0.2189
      3 C3          2.3819    1.4334   -0.0135 C.ar      1 <0>         0.2903
      4 C4          2.4085    0.0303   -0.0213 C.ar      1 <0>        -0.0821
      5 C5          1.2079   -0.6839   -0.0132 C.ar      1 <0>        -0.0986
      6 C6          0.0021   -0.0041    0.0020 C.ar      1 <0>         0.1093
      7 N1         -1.2020   -0.7186    0.0097 N.pl3     1 <0>        -0.8954
      8 C7          3.6598   -0.6658   -0.0379 C.1       1 <0>         0.3112
      9 N2          4.6525   -1.2179   -0.0511 N.1       1 <0>        -0.4868
     10 N3          3.5738    2.1548   -0.0219 N.2       1 <0>        -1.0788
     11 S1          3.5396    3.8104   -0.0132 S.o2      1 <0>         2.6055
     12 O1          2.9679    4.2113   -1.2508 O.2       1 <0>        -1.0189
     13 O2          2.9931    4.1988    1.2397 O.2       1 <0>        -1.0121
     14 C8          5.2116    4.3661   -0.0273 C.ar      1 <0>        -0.6333
     15 C9          5.6952    5.0744   -1.1110 C.ar      1 <0>        -0.0349
     16 C10         7.0087    5.5114   -1.1219 C.ar      1 <0>         0.0600
     17 C11         7.8380    5.2388   -0.0470 C.ar      1 <0>        -0.0859
     18 C12         7.3545    4.5307    1.0363 C.ar      1 <0>        -0.1523
     19 C13         6.0391    4.0981    1.0495 C.ar      1 <0>         0.1945
     20 F1          5.5649    3.4101    2.1111 F         1 <0>        -0.1085
     21 F2          7.4816    6.2035   -2.1815 F         1 <0>        -0.1360
     22 H1         -0.9608    1.9109    0.0260 H         1 <0>         0.1110
     23 H2          1.1421    3.1800    0.0082 H         1 <0>         0.1076
     24 H3          1.2204   -1.7638   -0.0195 H         1 <0>         0.1147
     25 H4         -2.0477   -0.2436    0.0203 H         1 <0>         0.3884
     26 H5         -1.1905   -1.6885    0.0044 H         1 <0>         0.3881
     27 H6          5.0485    5.2868   -1.9495 H         1 <0>         0.1609
     28 H7          8.8628    5.5794   -0.0557 H         1 <0>         0.1483
     29 H8          8.0014    4.3178    1.8745 H         1 <0>         0.1509
@<TRIPOS>BOND
     1    1    6 ar
     2    1    2 ar
     3    1   22 1
     4    2    3 ar
     5    2   23 1
     6    3    4 ar
     7    3   10 1
     8    4    5 ar
     9    4    8 1
    10    5    6 ar
    11    5   24 1
    12    6    7 1
    13    7   25 1
    14    7   26 1
    15    8    9 3
    16   10   11 1
    17   11   12 2
    18   11   13 2
    19   11   14 1
    20   14   19 ar
    21   14   15 ar
    22   15   16 ar
    23   15   27 1
    24   16   17 ar
    25   16   21 1
    26   17   18 ar
    27   17   28 1
    28   18   19 ar
    29   18   29 1
    30   19   20 1
@<TRIPOS>MOLECULE
ZINC39869959
   40    42     0     0     0
SMALL
USER_CHARGES

@<TRIPOS>ATOM
      1 C1         -1.1054    1.4388    0.1071 C.3       1 <0>        -0.0954
      2 C2         -1.0424   -0.0668    0.1058 C.2       1 <0>        -0.0399
      3 C3         -0.7346   -0.7345    1.2474 C.2       1 <0>        -0.1501
      4 C4         -0.4316   -0.2120    2.5997 C.2       1 <0>         0.5167
      5 O1         -0.4287    0.9845    2.8419 O.2       1 <0>        -0.5578
      6 N1         -0.1663   -1.1075    3.5251 N.2       1 <0>        -0.6908
      7 C5         -0.1665   -2.4075    3.2760 C.2       1 <0>         0.4179
      8 S1         -0.5890   -2.4924    1.5427 S.3       1 <0>        -0.1720
      9 N2          0.0905   -3.4398    4.1409 N.2       1 <0>        -0.5395
     10 C6          0.2002   -3.1917    5.5131 C.ar      1 <0>         0.0841
     11 C7         -0.4132   -2.0770    6.0658 C.ar      1 <0>        -0.0957
     12 C8         -0.3063   -1.8260    7.4363 C.ar      1 <0>        -0.1629
     13 C9          0.4181   -2.6977    8.2485 C.ar      1 <0>        -0.0682
     14 C10         1.0333   -3.8171    7.6892 C.ar      1 <0>        -0.1676
     15 C11         0.9174   -4.0642    6.3187 C.ar      1 <0>        -0.0857
     16 C12         1.8011   -4.7428    8.5445 C.2       1 <0>         0.5336
     17 O2          1.8981   -4.5283    9.7445 O.co2     1 <0>        -0.7035
     18 O3          2.3403   -5.7243    8.0532 O.co2     1 <0>        -0.7111
     19 C13        -0.9589   -0.6396    8.0233 C.2       1 <0>         0.5290
     20 O4         -1.5936    0.1246    7.3102 O.co2     1 <0>        -0.6960
     21 O5         -0.8648   -0.4207    9.2227 O.co2     1 <0>        -0.7107
     22 C14        -1.3137   -0.8114   -1.1292 C.ar      1 <0>        -0.0762
     23 C15        -0.2996   -1.5688   -1.7303 C.ar      1 <0>        -0.0482
     24 C16        -0.5577   -2.2627   -2.8840 C.ar      1 <0>        -0.1942
     25 C17        -1.8252   -2.2154   -3.4589 C.ar      1 <0>         0.1994
     26 C18        -2.8360   -1.4637   -2.8653 C.ar      1 <0>        -0.1994
     27 C19        -2.5891   -0.7719   -1.7079 C.ar      1 <0>        -0.0594
     28 N3         -2.0822   -2.9210   -4.6302 N.pl3     1 <0>        -0.8835
     29 H1         -0.1232    1.8438   -0.1369 H         1 <0>         0.0614
     30 H2         -1.8307    1.7728   -0.6348 H         1 <0>         0.0500
     31 H3         -1.4077    1.7890    1.0941 H         1 <0>         0.0902
     32 H4         -0.9739   -1.4021    5.4361 H         1 <0>         0.1403
     33 H5          0.5028   -2.5062    9.3080 H         1 <0>         0.1186
     34 H6          1.3898   -4.9334    5.8856 H         1 <0>         0.1106
     35 H7          0.6839   -1.6055   -1.2856 H         1 <0>         0.1234
     36 H8          0.2233   -2.8467   -3.3481 H         1 <0>         0.1147
     37 H9         -3.8174   -1.4297   -3.3149 H         1 <0>         0.1128
     38 H10        -3.3751   -0.1931   -1.2456 H         1 <0>         0.1210
     39 H11        -1.3791   -3.4448   -5.0451 H         1 <0>         0.3927
     40 H12        -2.9646   -2.8891   -5.0319 H         1 <0>         0.3916
@<TRIPOS>BOND
     1    1    2 1
     2    1   29 1
     3    1   30 1
     4    1   31 1
     5    2    3 2
     6    2   22 1
     7    3    8 1
     8    3    4 1
     9    4    5 2
    10    4    6 1
    11    6    7 2
    12    7    8 1
    13    7    9 1
    14    9   10 1
    15   10   15 ar
    16   10   11 ar
    17   11   12 ar
    18   11   32 1
    19   12   13 ar
    20   12   19 1
    21   13   14 ar
    22   13   33 1
    23   14   15 ar
    24   14   16 1
    25   15   34 1
    26   16   17 2
    27   16   18 1
    28   19   20 2
    29   19   21 1
    30   22   27 ar
    31   22   23 ar
    32   23   24 ar
    33   23   35 1
    34   24   25 ar
    35   24   36 1
    36   25   26 ar
    37   25   28 1
    38   26   27 ar
    39   26   37 1
    40   27   38 1
    41   28   39 1
    42   28   40 1
@<TRIPOS>MOLECULE
ZINC41035941
   39    40     0     0     0
SMALL
USER_CHARGES

@<TRIPOS>ATOM
      1 C1         -0.1449    1.8296   -0.0336 C.3       1 <0>        -0.1486
      2 C2         -0.3077    0.3095   -0.0964 C.3       1 <0>        -0.0879
      3 H1         -1.3642    0.0537   -0.0165 H         1 <0>         0.0589
      4 C3          0.2432   -0.2079   -1.4266 C.3       1 <0>        -0.1103
      5 C4          1.7263    0.1513   -1.5387 C.3       1 <0>        -0.1192
      6 C5          2.4956   -0.4921   -0.3833 C.3       1 <0>        -0.1059
      7 C6          1.9446    0.0253    0.9470 C.3       1 <0>         0.1292
      8 C7          0.4616   -0.3339    1.0591 C.3       1 <0>        -0.1086
      9 C8          2.7024   -0.6085    2.0851 C.2       1 <0>         0.5010
     10 O1          3.3157    0.0907    2.8733 O.co2     1 <0>        -0.6748
     11 O2          2.7021   -1.8205    2.2176 O.co2     1 <0>        -0.7003
     12 N1          2.1005    1.4807    1.0071 N.am      1 <0>        -0.7069
     13 C9          1.6969    2.1571    2.1008 C.2       1 <0>         0.7143
     14 O3          1.2035    1.5593    3.0376 O.2       1 <0>        -0.5445
     15 N2          1.8403    3.4960    2.1561 N.am      1 <0>        -0.6970
     16 C10         1.5283    4.1852    3.3337 C.ar      1 <0>         0.2075
     17 C11         0.9992    5.4675    3.2699 C.ar      1 <0>        -0.1578
     18 C12         0.6918    6.1450    4.4335 C.ar      1 <0>        -0.0678
     19 C13         0.9106    5.5474    5.6617 C.ar      1 <0>        -0.1262
     20 C14         1.4380    4.2703    5.7284 C.ar      1 <0>        -0.0642
     21 C15         1.7419    3.5858    4.5680 C.ar      1 <0>        -0.1139
     22 I1          0.4429    6.5787    7.4243 I         1 <0>        -0.0622
     23 H2          0.8698    2.0987   -0.3269 H         1 <0>         0.0686
     24 H3         -0.8562    2.2995   -0.7128 H         1 <0>         0.0332
     25 H4         -0.3324    2.1733    0.9837 H         1 <0>         0.0506
     26 H5          0.1273   -1.2908   -1.4714 H         1 <0>         0.0606
     27 H6         -0.3048    0.2505   -2.2498 H         1 <0>         0.0529
     28 H7          2.1188   -0.2173   -2.4864 H         1 <0>         0.0569
     29 H8          1.8422    1.2342   -1.4940 H         1 <0>         0.0576
     30 H9          2.3796   -1.5750   -0.4280 H         1 <0>         0.0818
     31 H10         3.5521   -0.2363   -0.4631 H         1 <0>         0.0583
     32 H11         0.0691    0.0347    2.0068 H         1 <0>         0.0772
     33 H12         0.3457   -1.4168    1.0144 H         1 <0>         0.0685
     34 H13         2.4941    1.9576    0.2598 H         1 <0>         0.3810
     35 H14         2.1597    3.9821    1.3798 H         1 <0>         0.3994
     36 H15         0.8285    5.9347    2.3112 H         1 <0>         0.1286
     37 H16         0.2806    7.1425    4.3844 H         1 <0>         0.1264
     38 H17         1.6084    3.8064    6.6887 H         1 <0>         0.1282
     39 H18         2.1491    2.5869    4.6205 H         1 <0>         0.1554
@<TRIPOS>BOND
     1    1    2 1
     2    1   23 1
     3    1   24 1
     4    1   25 1
     5    2    3 1
     6    2    8 1
     7    2    4 1
     8    4    5 1
     9    4   26 1
    10    4   27 1
    11    5    6 1
    12    5   28 1
    13    5   29 1
    14    6    7 1
    15    6   30 1
    16    6   31 1
    17    7    8 1
    18    7    9 1
    19    7   12 1
    20    8   32 1
    21    8   33 1
    22    9   10 2
    23    9   11 1
    24   12   13 am
    25   12   34 1
    26   13   14 2
    27   13   15 am
    28   15   16 1
    29   15   35 1
    30   16   21 ar
    31   16   17 ar
    32   17   18 ar
    33   17   36 1
    34   18   19 ar
    35   18   37 1
    36   19   20 ar
    37   19   22 1
    38   20   21 ar
    39   20   38 1
    40   21   39 1
@<TRIPOS>MOLECULE
ZINC62874849
   42    43     0     0     0
SMALL
USER_CHARGES

@<TRIPOS>ATOM
      1 C1         -1.7054   -0.7390   -0.0460 C.3       1 <0>        -0.1444
      2 C2         -0.6684   -1.7770   -0.4794 C.3       1 <0>        -0.0941
      3 C3          0.3447   -1.1234   -1.4215 C.3       1 <0>        -0.1508
      4 C4          1.0500    0.0247   -0.6959 C.3       1 <0>        -0.0800
      5 C5          2.0400    0.7002   -1.6476 C.3       1 <0>        -0.1381
      6 C6          3.0979   -0.3181   -2.0845 C.3       1 <0>         0.1499
      7 N1          2.4192   -1.4909   -2.6525 N.pl3     1 <0>        -0.6700
      8 C7          1.3833   -2.1623   -1.8558 C.3       1 <0>         0.1776
      9 C8          2.7507   -1.9563   -3.9202 C.ar      1 <0>         0.2234
     10 C9          2.1172   -1.4279   -5.0419 C.ar      1 <0>        -0.1026
     11 C10         2.4430   -1.8863   -6.2976 C.ar      1 <0>        -0.0875
     12 C11         3.4113   -2.8837   -6.4466 C.ar      1 <0>        -0.1591
     13 C12         4.0454   -3.4122   -5.3186 C.ar      1 <0>        -0.0612
     14 C13         3.7192   -2.9454   -4.0656 C.ar      1 <0>        -0.1138
     15 C14         4.4072   -3.5099   -2.8494 C.3       1 <0>        -0.0990
     16 C15         3.7626   -3.3778   -7.7915 C.2       1 <0>         0.5700
     17 O1          4.6049   -4.2454   -7.9196 O.2       1 <0>        -0.5530
     18 N2          3.1499   -2.8676   -8.8781 N.am      1 <0>        -0.8541
     19 C16        -0.3699   -0.5885   -2.6357 C.2       1 <0>         0.5202
     20 O2         -0.7281    0.5764   -2.6682 O.co2     1 <0>        -0.6989
     21 O3         -0.5898   -1.3207   -3.5854 O.co2     1 <0>        -0.6958
     22 H1         -1.2054    0.0805    0.4702 H         1 <0>         0.0508
     23 H2         -2.2225   -0.3532   -0.9246 H         1 <0>         0.0647
     24 H3         -2.4271   -1.2046    0.6251 H         1 <0>         0.0361
     25 H4         -0.1512   -2.1628    0.3992 H         1 <0>         0.0443
     26 H5         -1.1684   -2.5965   -0.9957 H         1 <0>         0.0545
     27 H6          0.3104    0.7535   -0.3642 H         1 <0>         0.0632
     28 H7          1.5866   -0.3669    0.1682 H         1 <0>         0.0350
     29 H8          1.5076    1.0703   -2.5238 H         1 <0>         0.0824
     30 H9          2.5250    1.5325   -1.1375 H         1 <0>         0.0507
     31 H10         3.7465    0.1292   -2.8378 H         1 <0>         0.0572
     32 H11         3.6913   -0.6214   -1.2220 H         1 <0>         0.0410
     33 H12         1.8369   -2.6160   -0.9746 H         1 <0>         0.0300
     34 H13         0.9006   -2.9319   -2.4581 H         1 <0>         0.0691
     35 H14         1.3690   -0.6576   -4.9261 H         1 <0>         0.1412
     36 H15         1.9510   -1.4763   -7.1672 H         1 <0>         0.1193
     37 H16         4.7936   -4.1830   -5.4305 H         1 <0>         0.1287
     38 H17         3.7985   -4.3085   -2.4256 H         1 <0>         0.0644
     39 H18         5.3811   -3.9077   -3.1347 H         1 <0>         0.0573
     40 H19         4.5396   -2.7216   -2.1083 H         1 <0>         0.0684
     41 H20         2.4780   -2.1756   -8.7759 H         1 <0>         0.4025
     42 H21         3.3809   -3.1925   -9.7624 H         1 <0>         0.4004
@<TRIPOS>BOND
     1    1    2 1
     2    1   22 1
     3    1   23 1
     4    1   24 1
     5    2    3 1
     6    2   25 1
     7    2   26 1
     8    3    8 1
     9    3    4 1
    10    3   19 1
    11    4    5 1
    12    4   27 1
    13    4   28 1
    14    5    6 1
    15    5   29 1
    16    5   30 1
    17    6    7 1
    18    6   31 1
    19    6   32 1
    20    7    8 1
    21    7    9 1
    22    8   33 1
    23    8   34 1
    24    9   14 ar
    25    9   10 ar
    26   10   11 ar
    27   10   35 1
    28   11   12 ar
    29   11   36 1
    30   12   13 ar
    31   12   16 1
    32   13   14 ar
    33   13   37 1
    34   14   15 1
    35   15   38 1
    36   15   39 1
    37   15   40 1
    38   16   17 2
    39   16   18 am
    40   18   41 1
    41   18   42 1
    42   19   20 2
    43   19   21 1
@<TRIPOS>MOLECULE
ZINC19761634
   42    44     0     0     0
SMALL
USER_CHARGES
2-[(2R)-6-amino-2-methyl-2,3-dihydro-1,4-benzoxazin-4-yl]-N-(5-ethyl-1,3,4-thiadiazol-2-yl)acetamide
@<TRIPOS>ATOM
      1 C1         -0.3548   -0.5005    9.0816 C.3       1 <0>        -0.1518
      2 C2          0.7801   -0.5009    8.0555 C.3       1 <0>        -0.0291
      3 C3          0.2031   -0.3843    6.6682 C.2       1 <0>         0.0531
      4 N1         -0.0654    0.6884    5.9509 N.2       1 <0>        -0.2448
      5 N2         -0.5485    0.5816    4.7896 N.2       1 <0>        -0.2936
      6 C4         -0.8158   -0.5953    4.2498 C.2       1 <0>         0.2737
      7 S1         -0.3124   -1.6625    5.5277 S.3       1 <0>         0.0034
      8 N3         -1.3478   -0.8973    3.0008 N.am      1 <0>        -0.6276
      9 C5         -1.6747    0.0953    2.1497 C.2       1 <0>         0.4770
     10 O1         -1.5050    1.2518    2.4730 O.2       1 <0>        -0.4471
     11 C6         -2.2512   -0.2319    0.7963 C.3       1 <0>         0.0417
     12 N4         -2.4013    1.0037    0.0163 N.pl3     1 <0>        -0.4630
     13 C7         -3.4693    1.8465    0.5664 C.3       1 <0>         0.0077
     14 C8         -3.4970    3.1698   -0.2096 C.3       1 <0>         0.0911
     15 H1         -3.5855    3.0141   -1.2949 H         1 <0>         0.0795
     16 O2         -2.2505    3.8369    0.0137 O.3       1 <0>        -0.3169
     17 C9         -1.1236    3.0769   -0.0844 C.ar      1 <0>         0.0507
     18 C10        -1.1857    1.6881   -0.0822 C.ar      1 <0>         0.1013
     19 C11        -0.0118    0.9479   -0.1713 C.ar      1 <0>        -0.2131
     20 C12         1.2122    1.5915   -0.2757 C.ar      1 <0>         0.2232
     21 C13         1.2676    2.9786   -0.2855 C.ar      1 <0>        -0.1900
     22 C14         0.1031    3.7161   -0.1894 C.ar      1 <0>        -0.0738
     23 N5          2.3906    0.8432   -0.3715 N.pl3     1 <0>        -0.9008
     24 C15        -4.6485    4.0418    0.2951 C.3       1 <0>        -0.1478
     25 H2          0.0664   -0.5856   10.0942 H         1 <0>         0.0756
     26 H3         -1.0230   -1.3529    8.8896 H         1 <0>         0.0593
     27 H4         -0.9237    0.4373    8.9987 H         1 <0>         0.0648
     28 H5          1.4483    0.3515    8.2475 H         1 <0>         0.1079
     29 H6          1.3490   -1.4387    8.1384 H         1 <0>         0.0962
     30 H7         -1.5018   -1.9463    2.7076 H         1 <0>         0.4543
     31 H8         -1.5759   -0.9201    0.2668 H         1 <0>         0.1219
     32 H9         -3.2349   -0.7079    0.9221 H         1 <0>         0.1228
     33 H10        -4.4349    1.3302    0.4610 H         1 <0>         0.0975
     34 H11        -3.2717    2.0406    1.6309 H         1 <0>         0.0808
     35 H12        -0.0539   -0.1312   -0.1637 H         1 <0>         0.1171
     36 H13         2.2201    3.4809   -0.3678 H         1 <0>         0.1234
     37 H14         0.1480    4.7951   -0.1964 H         1 <0>         0.1294
     38 H15         3.3613    1.3540   -0.4543 H         1 <0>         0.4158
     39 H16         2.3463   -0.2559   -0.3640 H         1 <0>         0.4105
     40 H17        -4.6637    4.9888   -0.2643 H         1 <0>         0.0725
     41 H18        -4.5081    4.2507    1.3659 H         1 <0>         0.0681
     42 H19        -5.6014    3.5128    0.1465 H         1 <0>         0.0791
@<TRIPOS>BOND
     1    1    2 1
     2    1   25 1
     3    1   26 1
     4    1   27 1
     5    2    3 1
     6    2   28 1
     7    2   29 1
     8    3    7 1
     9    3    4 2
    10    4    5 1
    11    5    6 2
    12    6    7 1
    13    6    8 1
    14    8    9 am
    15    8   30 1
    16    9   10 2
    17    9   11 1
    18   11   12 1
    19   11   31 1
    20   11   32 1
    21   12   18 1
    22   12   13 1
    23   13   14 1
    24   13   33 1
    25   13   34 1
    26   14   15 1
    27   14   16 1
    28   14   24 1
    29   16   17 1
    30   17   22 ar
    31   17   18 ar
    32   18   19 ar
    33   19   20 ar
    34   19   35 1
    35   20   21 ar
    36   20   23 1
    37   21   22 ar
    38   21   36 1
    39   22   37 1
    40   23   38 1
    41   23   39 1
    42   24   40 1
    43   24   41 1
    44   24   42 1
@<TRIPOS>MOLECULE
ZINC39747568
   48    50     0     0     0
SMALL
USER_CHARGES

@<TRIPOS>ATOM
      1 C1         -0.0187    1.5258    0.0104 C.3       1 <0>        -0.1635
      2 C2          0.0021   -0.0041    0.0020 C.3       1 <0>         0.1377
      3 N1          0.6878   -0.4765   -1.2033 N.am      1 <0>        -0.4369
      4 C3         -0.0087   -0.5972   -2.3526 C.2       1 <0>         0.5447
      5 O1         -1.2203   -0.4993   -2.3611 O.2       1 <0>        -0.5203
      6 C4          0.7412   -0.8513   -3.6024 C.ar      1 <0>        -0.1298
      7 C5          0.1014   -1.2099   -4.7832 C.ar      1 <0>        -0.0542
      8 C6          0.8540   -1.4478   -5.9174 C.ar      1 <0>        -0.1181
      9 C7          2.2323   -1.3313   -5.8758 C.ar      1 <0>        -0.0896
     10 C8          2.8724   -0.9690   -4.7022 C.ar      1 <0>        -0.1097
     11 C9          2.1331   -0.7231   -3.5678 C.ar      1 <0>        -0.0953
     12 C10         2.7864   -0.2953   -2.2800 C.3       1 <0>         0.1006
     13 H1          3.7956   -0.7044   -2.2332 H         1 <0>         0.1350
     14 N2          2.0121   -0.7777   -1.1384 N.3       1 <0>        -0.4298
     15 C11         2.8542    1.2093   -2.2297 C.2       1 <0>         0.5249
     16 O2          2.0367    1.8320   -1.5854 O.2       1 <0>        -0.5010
     17 N3          3.8232    1.8631   -2.9006 N.am      1 <0>        -0.7282
     18 C12         3.8891    3.3258   -2.8517 C.3       1 <0>         0.1428
     19 C13         5.0721    3.8114   -3.6916 C.3       1 <0>        -0.0803
     20 H2          4.9785    3.4090   -4.7003 H         1 <0>         0.1262
     21 C14         5.0387    5.3083   -3.7598 C.2       1 <0>        -0.1054
     22 C15         5.8599    6.0654   -3.0503 C.2       1 <0>        -0.1184
     23 C16         6.8554    5.4329   -2.1618 C.2       1 <0>         0.1189
     24 N4          7.1550    4.0775   -2.3476 N.am      1 <0>        -0.6582
     25 C17         6.3427    3.3040   -3.0815 C.2       1 <0>         0.5269
     26 O3          6.6506    2.1443   -3.2584 O.2       1 <0>        -0.5295
     27 C18         7.4578    6.1388   -1.2013 C.2       1 <0>        -0.2149
     28 C19         4.0363    5.9735   -4.6673 C.3       1 <0>        -0.1220
     29 H3          1.0039    1.9031    0.0027 H         1 <0>         0.0881
     30 H4         -0.5459    1.8868   -0.8726 H         1 <0>         0.0490
     31 H5         -0.5289    1.8773    0.9072 H         1 <0>         0.0543
     32 H6          0.5293   -0.3651    0.8851 H         1 <0>         0.0834
     33 H7         -1.0205   -0.3814    0.0098 H         1 <0>         0.0815
     34 H8         -0.9742   -1.3021   -4.8138 H         1 <0>         0.1398
     35 H9          0.3650   -1.7260   -6.8393 H         1 <0>         0.1350
     36 H10         2.8133   -1.5240   -6.7655 H         1 <0>         0.1336
     37 H11         3.9485   -0.8804   -4.6772 H         1 <0>         0.1348
     38 H12         2.1516   -1.7679   -1.0039 H         1 <0>         0.3576
     39 H13         4.4769    1.3651   -3.4159 H         1 <0>         0.4077
     40 H14         2.9648    3.7446   -3.2495 H         1 <0>         0.0873
     41 H15         4.0196    3.6493   -1.8190 H         1 <0>         0.0760
     42 H16         5.8026    7.1416   -3.1210 H         1 <0>         0.1473
     43 H17         7.2186    7.1835   -1.0682 H         1 <0>         0.1251
     44 H18         8.1842    5.6649   -0.5578 H         1 <0>         0.1086
     45 H19         3.1123    6.1537   -4.1180 H         1 <0>         0.0787
     46 H20         4.4398    6.9224   -5.0207 H         1 <0>         0.0748
     47 H21         3.8319    5.3257   -5.5197 H         1 <0>         0.0703
     48 H22         7.9515    3.6982   -1.9443 H         1 <0>         0.4144
@<TRIPOS>BOND
     1    1    2 1
     2    1   29 1
     3    1   30 1
     4    1   31 1
     5    2    3 1
     6    2   32 1
     7    2   33 1
     8    3   14 1
     9    3    4 am
    10    4    5 2
    11    4    6 1
    12    6   11 ar
    13    6    7 ar
    14    7    8 ar
    15    7   34 1
    16    8    9 ar
    17    8   35 1
    18    9   10 ar
    19    9   36 1
    20   10   11 ar
    21   10   37 1
    22   11   12 1
    23   12   13 1
    24   12   14 1
    25   12   15 1
    26   14   38 1
    27   15   16 2
    28   15   17 am
    29   17   18 1
    30   17   39 1
    31   18   19 1
    32   18   40 1
    33   18   41 1
    34   19   20 1
    35   19   25 1
    36   19   21 1
    37   21   22 2
    38   21   28 1
    39   22   23 1
    40   22   42 1
    41   23   24 1
    42   23   27 2
    43   24   25 am
    44   24   48 1
    45   25   26 2
    46   27   43 1
    47   27   44 1
    48   28   45 1
    49   28   46 1
    50   28   47 1
@<TRIPOS>MOLECULE
ZINC20202672
   40    42     0     0     0
SMALL
USER_CHARGES

@<TRIPOS>ATOM
      1 C1         -0.0169    1.3844   -0.0046 C.ar      1 <0>        -0.1451
      2 C2          1.1704    2.0900   -0.0121 C.ar      1 <0>        -0.0802
      3 C3          2.3781    1.4144   -0.0135 C.ar      1 <0>        -0.0600
      4 C4          2.3998    0.0308   -0.0070 C.ar      1 <0>        -0.0813
      5 C5          1.2154   -0.6795    0.0006 C.ar      1 <0>        -0.1423
      6 C6          0.0021   -0.0041    0.0020 C.ar      1 <0>         0.1732
      7 N1         -1.1998   -0.7216    0.0101 N.am      1 <0>        -0.5535
      8 C7         -1.2928   -2.1823   -0.0966 C.3       1 <0>         0.1076
      9 C8         -2.7151   -2.5412    0.3879 C.3       1 <0>        -0.1252
     10 H1         -3.1260   -3.3700   -0.1885 H         1 <0>         0.1359
     11 C9         -3.4857   -1.2317    0.1009 C.3       1 <0>        -0.1428
     12 C10        -2.4166   -0.1616    0.1224 C.2       1 <0>         0.5165
     13 O1         -2.6270    1.0286    0.2236 O.2       1 <0>        -0.5012
     14 C11        -2.7189   -2.8583    1.8612 C.2       1 <0>         0.5198
     15 O2         -1.6859   -2.8093    2.4947 O.2       1 <0>        -0.5213
     16 N2         -3.8703   -3.1963    2.4747 N.am      1 <0>        -0.7264
     17 C12        -3.8740   -3.5046    3.9069 C.3       1 <0>         0.1227
     18 C13        -5.2962   -3.8545    4.3496 C.3       1 <0>        -0.0268
     19 C14        -5.3000   -4.1716    5.8229 C.2       1 <0>         0.0367
     20 N3         -5.4821   -3.3785    6.8591 N.2       1 <0>        -0.2302
     21 N4         -5.4553   -3.8057    8.0455 N.2       1 <0>        -0.3578
     22 C15        -5.2412   -5.0849    8.3232 C.2       1 <0>         0.3426
     23 S1         -5.0663   -5.7349    6.6639 S.3       1 <0>        -0.0486
     24 N5         -5.1764   -5.7338    9.5474 N.pl3     1 <0>        -0.7821
     25 Cl1         3.8687    2.3043   -0.0241 Cl        1 <0>        -0.0706
     26 H2         -0.9591    1.9121    0.0007 H         1 <0>         0.1628
     27 H3          1.1562    3.1699   -0.0172 H         1 <0>         0.1382
     28 H4          3.3437   -0.4941   -0.0081 H         1 <0>         0.1384
     29 H5          1.2328   -1.7594    0.0050 H         1 <0>         0.1359
     30 H6         -1.1573   -2.4943   -1.1322 H         1 <0>         0.0954
     31 H7         -0.5464   -2.6555    0.5414 H         1 <0>         0.1069
     32 H8         -3.9652   -1.2777   -0.8769 H         1 <0>         0.1269
     33 H9         -4.2242   -1.0450    0.8806 H         1 <0>         0.1137
     34 H10        -4.6965   -3.2355    1.9681 H         1 <0>         0.4050
     35 H11        -3.2153   -4.3518    4.0980 H         1 <0>         0.0760
     36 H12        -3.5224   -2.6376    4.4661 H         1 <0>         0.0797
     37 H13        -5.9550   -3.0073    4.1586 H         1 <0>         0.1117
     38 H14        -5.6479   -4.7215    3.7904 H         1 <0>         0.1012
     39 H15        -5.2983   -5.2327   10.3689 H         1 <0>         0.4240
     40 H16        -5.0092   -6.6886    9.5819 H         1 <0>         0.4245
@<TRIPOS>BOND
     1    1    6 ar
     2    1    2 ar
     3    1   26 1
     4    2    3 ar
     5    2   27 1
     6    3    4 ar
     7    3   25 1
     8    4    5 ar
     9    4   28 1
    10    5    6 ar
    11    5   29 1
    12    6    7 1
    13    7   12 am
    14    7    8 1
    15    8    9 1
    16    8   30 1
    17    8   31 1
    18    9   10 1
    19    9   11 1
    20    9   14 1
    21   11   12 1
    22   11   32 1
    23   11   33 1
    24   12   13 2
    25   14   15 2
    26   14   16 am
    27   16   17 1
    28   16   34 1
    29   17   18 1
    30   17   35 1
    31   17   36 1
    32   18   19 1
    33   18   37 1
    34   18   38 1
    35   19   23 1
    36   19   20 2
    37   20   21 1
    38   21   22 2
    39   22   23 1
    40   22   24 1
    41   24   39 1
    42   24   40 1
@<TRIPOS>MOLECULE
ZINC65363548
   45    48     0     0     0
SMALL
USER_CHARGES

@<TRIPOS>ATOM
      1 C1         -0.0167    1.3786    0.0096 C.ar      1 <0>        -0.1169
      2 C2          1.1696    2.0890    0.0021 C.ar      1 <0>        -0.0965
      3 C3          2.3773    1.4191   -0.0135 C.ar      1 <0>        -0.1043
      4 C4          2.3994    0.0308   -0.0212 C.ar      1 <0>         0.1446
      5 C5          1.2066   -0.6797   -0.0132 C.ar      1 <0>        -0.1404
      6 C6          0.0021   -0.0041    0.0020 C.ar      1 <0>        -0.0935
      7 N1          3.6233   -0.6519   -0.0375 N.pl3     1 <0>        -0.3202
      8 C7          3.8891   -1.8245    0.5734 C.2       1 <0>         0.3223
      9 C8          5.1951   -2.1437    0.3072 C.2       1 <0>        -0.2614
     10 C9          5.7294   -1.1361   -0.4818 C.2       1 <0>         0.0973
     11 N2          4.7930   -0.2415   -0.6981 N.2       1 <0>        -0.2800
     12 C10         5.8373   -3.4023    0.8311 C.3       1 <0>         0.0443
     13 H1          6.5909   -3.7512    0.1252 H         1 <0>         0.1093
     14 C11         4.7491   -4.4678    0.9927 C.3       1 <0>        -0.1337
     15 C12         3.5106   -3.8973    1.6212 C.2       1 <0>         0.5354
     16 O1          2.8775   -4.5836    2.3954 O.2       1 <0>        -0.5080
     17 N3          3.0773   -2.6462    1.3546 N.am      1 <0>        -0.6511
     18 C13         6.4809   -3.1264    2.1655 C.ar      1 <0>        -0.1152
     19 C14         5.7099   -2.6870    3.2259 C.ar      1 <0>        -0.0704
     20 C15         6.2976   -2.4329    4.4500 C.ar      1 <0>        -0.1410
     21 C16         7.6624   -2.6194    4.6151 C.ar      1 <0>         0.1290
     22 C17         8.4336   -3.0607    3.5497 C.ar      1 <0>        -0.2074
     23 C18         7.8403   -3.3183    2.3290 C.ar      1 <0>        -0.0670
     24 O2          8.2429   -2.3697    5.8182 O.3       1 <0>        -0.2902
     25 C19         9.6524   -2.5835    5.9153 C.3       1 <0>         0.0394
     26 C20        10.1150   -2.2574    7.3119 C.2       1 <0>         0.5186
     27 O3          9.3162   -1.8791    8.1424 O.2       1 <0>        -0.5165
     28 N4         11.4163   -2.3861    7.6381 N.am      1 <0>        -0.8501
     29 H2         -0.9598    1.9047    0.0260 H         1 <0>         0.1329
     30 H3          1.1518    3.1689    0.0081 H         1 <0>         0.1359
     31 H4          3.3036    1.9745   -0.0201 H         1 <0>         0.1372
     32 H5          1.2206   -1.7596   -0.0195 H         1 <0>         0.1264
     33 H6         -0.9261   -0.5562    0.0079 H         1 <0>         0.1358
     34 H7          6.7410   -1.0965   -0.8579 H         1 <0>         0.1955
     35 H8          4.4974   -4.8716    0.0120 H         1 <0>         0.1128
     36 H9          5.1293   -5.2730    1.6214 H         1 <0>         0.1169
     37 H10         2.2268   -2.3287    1.6963 H         1 <0>         0.4146
     38 H11         4.6475   -2.5421    3.0969 H         1 <0>         0.1190
     39 H12         5.6951   -2.0891    5.2778 H         1 <0>         0.1313
     40 H13         9.4963   -3.2066    3.6756 H         1 <0>         0.1294
     41 H14         8.4396   -3.6661    1.5005 H         1 <0>         0.1309
     42 H15         9.8779   -3.6263    5.6921 H         1 <0>         0.0958
     43 H16        10.1675   -1.9397    5.2023 H         1 <0>         0.0955
     44 H17        12.0552   -2.6887    6.9739 H         1 <0>         0.4036
     45 H18        11.7141   -2.1762    8.5371 H         1 <0>         0.4103
@<TRIPOS>BOND
     1    1    6 ar
     2    1    2 ar
     3    1   29 1
     4    2    3 ar
     5    2   30 1
     6    3    4 ar
     7    3   31 1
     8    4    5 ar
     9    4    7 1
    10    5    6 ar
    11    5   32 1
    12    6   33 1
    13    7   11 1
    14    7    8 1
    15    8   17 1
    16    8    9 2
    17    9   10 1
    18    9   12 1
    19   10   11 2
    20   10   34 1
    21   12   13 1
    22   12   14 1
    23   12   18 1
    24   14   15 1
    25   14   35 1
    26   14   36 1
    27   15   16 2
    28   15   17 am
    29   17   37 1
    30   18   23 ar
    31   18   19 ar
    32   19   20 ar
    33   19   38 1
    34   20   21 ar
    35   20   39 1
    36   21   22 ar
    37   21   24 1
    38   22   23 ar
    39   22   40 1
    40   23   41 1
    41   24   25 1
    42   25   26 1
    43   25   42 1
    44   25   43 1
    45   26   27 2
    46   26   28 am
    47   28   44 1
    48   28   45 1
@<TRIPOS>MOLECULE
ZINC67385643
   54    55     0     0     0
SMALL
USER_CHARGES

@<TRIPOS>ATOM
      1 C1          2.3711    0.6498    1.8275 C.3       1 <0>        -0.1670
      2 C2          2.3194   -0.8682    1.6435 C.3       1 <0>         0.1130
      3 N1          2.6606   -1.2042    0.2590 N.am      1 <0>        -0.7252
      4 C3          2.6796   -2.4924   -0.1367 C.2       1 <0>         0.5109
      5 O1          2.4142   -3.3735    0.6534 O.2       1 <0>        -0.5354
      6 C4          3.0305   -2.8381   -1.5609 C.3       1 <0>         0.1455
      7 H1          2.3167   -2.3658   -2.2359 H         1 <0>         0.1163
      8 C5          4.4404   -2.3340   -1.8755 C.3       1 <0>        -0.1607
      9 N2          2.9810   -4.2916   -1.7371 N.am      1 <0>        -0.7305
     10 C6          2.7560   -4.8152   -2.9584 C.2       1 <0>         0.7102
     11 O2          2.5941   -4.0811   -3.9141 O.2       1 <0>        -0.5883
     12 N3          2.7104   -6.1524   -3.1205 N.am      1 <0>        -0.7403
     13 C7          2.4658   -6.7214   -4.4481 C.3       1 <0>         0.1650
     14 C8          3.7881   -6.8196   -5.2123 C.3       1 <0>        -0.1443
     15 C9          3.5237   -7.3826   -6.6122 C.3       1 <0>         0.1146
     16 N4          2.8064   -8.6582   -6.4812 N.am      1 <0>        -0.6081
     17 C10         1.5691   -8.6948   -5.6897 C.3       1 <0>         0.1011
     18 C11         1.8555   -8.1170   -4.3001 C.3       1 <0>        -0.1434
     19 C12         3.2743   -9.7733   -7.0761 C.2       1 <0>         0.5634
     20 O3          4.2600   -9.7161   -7.7850 O.2       1 <0>        -0.5306
     21 C13         2.5885  -11.0663   -6.8665 C.ar      1 <0>        -0.1337
     22 C14         1.2097  -11.1675   -7.0582 C.ar      1 <0>        -0.0885
     23 C15         0.5760  -12.3770   -6.8614 C.ar      1 <0>        -0.1248
     24 C16         1.3041  -13.4881   -6.4744 C.ar      1 <0>        -0.0637
     25 C17         2.6711  -13.3944   -6.2823 C.ar      1 <0>        -0.1232
     26 C18         3.3180  -12.1923   -6.4817 C.ar      1 <0>        -0.0653
     27 C19         0.6051  -14.8059   -6.2608 C.3       1 <0>        -0.1209
     28 H2          3.3756    1.0090    1.6034 H         1 <0>         0.0633
     29 H3          1.6574    1.1221    1.1525 H         1 <0>         0.0633
     30 H4          2.1173    0.8998    2.8576 H         1 <0>         0.0765
     31 H5          3.0332   -1.3405    2.3185 H         1 <0>         0.0696
     32 H6          1.3150   -1.2273    1.8677 H         1 <0>         0.0694
     33 H7          2.8728   -0.4996   -0.3729 H         1 <0>         0.4039
     34 H8          4.6942   -2.5840   -2.9056 H         1 <0>         0.0774
     35 H9          4.4772   -1.2525   -1.7445 H         1 <0>         0.0713
     36 H10         5.1542   -2.8063   -1.2005 H         1 <0>         0.0635
     37 H11         3.1101   -4.8773   -0.9746 H         1 <0>         0.4059
     38 H12         2.8396   -6.7380   -2.3581 H         1 <0>         0.3977
     39 H13         1.7763   -6.0799   -4.9968 H         1 <0>         0.0930
     40 H14         4.2338   -5.8284   -5.2970 H         1 <0>         0.0842
     41 H15         4.4695   -7.4808   -4.6769 H         1 <0>         0.0688
     42 H16         2.9161   -6.6784   -7.1805 H         1 <0>         0.0740
     43 H17         4.4714   -7.5473   -7.1248 H         1 <0>         0.0975
     44 H18         0.8021   -8.0976   -6.1827 H         1 <0>         0.0770
     45 H19         1.2272   -9.7253   -5.5936 H         1 <0>         0.1020
     46 H20         2.5550   -8.7661   -3.7733 H         1 <0>         0.0751
     47 H21         0.9255   -8.0494   -3.7355 H         1 <0>         0.0858
     48 H22         0.6401  -10.3008   -7.3596 H         1 <0>         0.1299
     49 H23        -0.4909  -12.4567   -7.0094 H         1 <0>         0.1299
     50 H24         3.2336  -14.2653   -5.9798 H         1 <0>         0.1299
     51 H25         4.3858  -12.1216   -6.3361 H         1 <0>         0.1296
     52 H26         0.5915  -15.3658   -7.1960 H         1 <0>         0.0755
     53 H27         1.1360  -15.3799   -5.5014 H         1 <0>         0.0698
     54 H28        -0.4179  -14.6253   -5.9306 H         1 <0>         0.0699
@<TRIPOS>BOND
     1    1    2 1
     2    1   28 1
     3    1   29 1
     4    1   30 1
     5    2    3 1
     6    2   31 1
     7    2   32 1
     8    3    4 am
     9    3   33 1
    10    4    5 2
    11    4    6 1
    12    6    7 1
    13    6    8 1
    14    6    9 1
    15    8   34 1
    16    8   35 1
    17    8   36 1
    18    9   10 am
    19    9   37 1
    20   10   11 2
    21   10   12 am
    22   12   13 1
    23   12   38 1
    24   13   18 1
    25   13   14 1
    26   13   39 1
    27   14   15 1
    28   14   40 1
    29   14   41 1
    30   15   16 1
    31   15   42 1
    32   15   43 1
    33   16   17 1
    34   16   19 am
    35   17   18 1
    36   17   44 1
    37   17   45 1
    38   18   46 1
    39   18   47 1
    40   19   20 2
    41   19   21 1
    42   21   26 ar
    43   21   22 ar
    44   22   23 ar
    45   22   48 1
    46   23   24 ar
    47   23   49 1
    48   24   25 ar
    49   24   27 1
    50   25   26 ar
    51   25   50 1
    52   26   51 1
    53   27   52 1
    54   27   53 1
    55   27   54 1
@<TRIPOS>MOLECULE
ZINC13181557
   44    46     0     0     0
SMALL
USER_CHARGES
(3S)-3-[[5-(4-chlorophenyl)thiophene-2-carbonyl]amino]-3-(p-tolyl)propanoic acid
@<TRIPOS>ATOM
      1 C1          2.7925    3.2553   -0.1747 C.3       1 <0>        -0.1098
      2 C2          1.4085    2.6617   -0.1186 C.ar      1 <0>        -0.0984
      3 C3          1.2452    1.2890   -0.1070 C.ar      1 <0>        -0.1199
      4 C4         -0.0244    0.7445   -0.0561 C.ar      1 <0>        -0.1007
      5 C5         -1.1307    1.5725   -0.0221 C.ar      1 <0>        -0.0856
      6 C6         -0.9672    2.9452   -0.0279 C.ar      1 <0>        -0.1041
      7 C7          0.3023    3.4897   -0.0793 C.ar      1 <0>        -0.1220
      8 C8         -2.5150    0.9788    0.0272 C.3       1 <0>         0.2030
      9 H1         -2.4565   -0.0504    0.3812 H         1 <0>         0.1047
     10 C9         -3.1302    1.0023   -1.3734 C.3       1 <0>        -0.1648
     11 C10        -4.4556    0.2854   -1.3521 C.2       1 <0>         0.4592
     12 O1         -4.8198   -0.2813   -0.3490 O.co2     1 <0>        -0.6276
     13 N1         -3.3503    1.7626    0.9406 N.am      1 <0>        -0.6912
     14 C11        -3.3841    1.4570    2.2528 C.2       1 <0>         0.6071
     15 O2         -2.6549    0.5881    2.6943 O.2       1 <0>        -0.5260
     16 C12        -4.2984    2.1704    3.1477 C.2       1 <0>        -0.1919
     17 C13        -4.4890    2.0050    4.5119 C.2       1 <0>        -0.0902
     18 C14        -5.4045    2.7960    5.1471 C.2       1 <0>        -0.1456
     19 C15        -6.1151    3.7234    4.4024 C.2       1 <0>        -0.1190
     20 S1         -5.4593    3.4705    2.7613 S.3       1 <0>         0.1252
     21 C16        -7.1501    4.6777    4.8514 C.ar      1 <0>         0.0063
     22 C17        -7.5321    4.7170    6.1937 C.ar      1 <0>        -0.0870
     23 C18        -8.4952    5.6133    6.6076 C.ar      1 <0>        -0.1051
     24 C19        -9.0904    6.4660    5.6930 C.ar      1 <0>        -0.0339
     25 C20        -8.7195    6.4280    4.3593 C.ar      1 <0>        -0.1023
     26 C21        -7.7541    5.5395    3.9341 C.ar      1 <0>        -0.0947
     27 Cl1       -10.3067    7.5867    6.2205 Cl        1 <0>        -0.0698
     28 H2          3.0863    3.3945   -1.2151 H         1 <0>         0.0665
     29 H3          2.7957    4.2184    0.3358 H         1 <0>         0.0621
     30 H4          3.4966    2.5824    0.3148 H         1 <0>         0.0627
     31 H5          2.1094    0.6421   -0.1381 H         1 <0>         0.1189
     32 H6         -0.1520   -0.3279   -0.0473 H         1 <0>         0.1234
     33 H7         -1.8314    3.5921    0.0032 H         1 <0>         0.1163
     34 H8          0.4300    4.5621   -0.0883 H         1 <0>         0.1172
     35 H9         -3.2808    2.0353   -1.6869 H         1 <0>         0.0704
     36 H10        -2.4591    0.5044   -2.0734 H         1 <0>         0.0837
     37 H11        -3.8790    2.5015    0.6009 H         1 <0>         0.3943
     38 H12        -3.9221    1.2683    5.0617 H         1 <0>         0.1477
     39 H13        -5.5748    2.6964    6.2090 H         1 <0>         0.1412
     40 H14        -7.0718    4.0494    6.9070 H         1 <0>         0.1379
     41 H15        -8.7888    5.6473    7.6464 H         1 <0>         0.1382
     42 H16        -9.1874    7.0953    3.6506 H         1 <0>         0.1390
     43 H17        -7.4662    5.5103    2.8936 H         1 <0>         0.1361
     44 O3         -5.2315    0.2764   -2.4473 O.co2     1 <0>        -0.7716
@<TRIPOS>BOND
     1    1    2 1
     2    1   28 1
     3    1   29 1
     4    1   30 1
     5    2    7 ar
     6    2    3 ar
     7    3    4 ar
     8    3   31 1
     9    4    5 ar
    10    4   32 1
    11    5    6 ar
    12    5    8 1
    13    6    7 ar
    14    6   33 1
    15    7   34 1
    16    8    9 1
    17    8   10 1
    18    8   13 1
    19   10   11 1
    20   10   35 1
    21   10   36 1
    22   11   12 2
    23   11   44 1
    24   13   14 am
    25   13   37 1
    26   14   15 2
    27   14   16 1
    28   16   20 1
    29   16   17 2
    30   17   18 1
    31   17   38 1
    32   18   19 2
    33   18   39 1
    34   19   20 1
    35   19   21 1
    36   21   26 ar
    37   21   22 ar
    38   22   23 ar
    39   22   40 1
    40   23   24 ar
    41   23   41 1
    42   24   25 ar
    43   24   27 1
    44   25   26 ar
    45   25   42 1
    46   26   43 1
@<TRIPOS>MOLECULE
ZINC32001742
   42    44     0     0     0
SMALL
USER_CHARGES
4-[(3-chloro-4-fluoro-phenyl)sulfonylamino]-N-(3-ethynylphenyl)benzamide
@<TRIPOS>ATOM
      1 C1          8.8284    7.5463   -4.2555 C.1       1 <0>        -0.1899
      2 C2          8.7112    6.9897   -3.2285 C.1       1 <0>        -0.1467
      3 C3          8.5682    6.3107   -1.9758 C.ar      1 <0>         0.0253
      4 C4          9.6098    6.3290   -1.0466 C.ar      1 <0>        -0.1225
      5 C5          9.4697    5.6739    0.1599 C.ar      1 <0>        -0.0990
      6 C6          8.2999    4.9982    0.4530 C.ar      1 <0>        -0.1441
      7 C7          7.2573    4.9741   -0.4654 C.ar      1 <0>         0.1684
      8 C8          7.3906    5.6246   -1.6828 C.ar      1 <0>        -0.1019
      9 N1          6.0756    4.2891   -0.1643 N.am      1 <0>        -0.6915
     10 C9          4.8949    4.7470   -0.6255 C.2       1 <0>         0.5726
     11 O1          4.8445    5.8052   -1.2226 O.2       1 <0>        -0.5393
     12 C10         3.6639    3.9648   -0.4061 C.ar      1 <0>        -0.2230
     13 C11         2.4384    4.4385   -0.8839 C.ar      1 <0>        -0.0309
     14 C12         1.2917    3.7065   -0.6772 C.ar      1 <0>        -0.1728
     15 C13         1.3510    2.4952    0.0066 C.ar      1 <0>         0.2652
     16 C14         2.5690    2.0234    0.4883 C.ar      1 <0>        -0.2316
     17 C15         3.7201    2.7483    0.2806 C.ar      1 <0>        -0.0515
     18 N2          0.1904    1.7580    0.2139 N.2       1 <0>        -1.0604
     19 S1          0.1877    0.1243   -0.0575 S.o2      1 <0>         2.5938
     20 O2          1.2970   -0.4073    0.6539 O.2       1 <0>        -1.0293
     21 O3         -1.1433   -0.3218    0.1630 O.2       1 <0>        -0.9871
     22 C16         0.5236   -0.1199   -1.7698 C.ar      1 <0>        -0.6564
     23 C17        -0.5072   -0.0693   -2.6899 C.ar      1 <0>         0.0081
     24 C18        -0.2448   -0.2551   -4.0340 C.ar      1 <0>        -0.1670
     25 C19         1.0493   -0.5036   -4.4584 C.ar      1 <0>         0.1388
     26 C20         2.0810   -0.5598   -3.5353 C.ar      1 <0>        -0.0960
     27 C21         1.8164   -0.3675   -2.1914 C.ar      1 <0>         0.0094
     28 Cl1         3.7046   -0.8708   -4.0652 Cl        1 <0>        -0.0545
     29 F1          1.3060   -0.6908   -5.7715 F         1 <0>        -0.1276
     30 H1          8.9382    8.0678   -5.2178 H         1 <0>         0.2376
     31 H2         10.5254    6.8555   -1.2721 H         1 <0>         0.1235
     32 H3         10.2768    5.6889    0.8773 H         1 <0>         0.1289
     33 H4          8.1961    4.4870    1.3986 H         1 <0>         0.1285
     34 H5          6.5833    5.6031   -2.3998 H         1 <0>         0.1391
     35 H6          6.1098    3.3766    0.4490 H         1 <0>         0.4336
     36 H7          2.3918    5.3777   -1.4151 H         1 <0>         0.1199
     37 H8          0.3446    4.0718   -1.0461 H         1 <0>         0.1207
     38 H9          2.6111    1.0854    1.0220 H         1 <0>         0.1484
     39 H10         4.6653    2.3795    0.6506 H         1 <0>         0.1078
     40 H11        -1.5176    0.1198   -2.3585 H         1 <0>         0.1514
     41 H12        -1.0498   -0.2110   -4.7526 H         1 <0>         0.1473
     42 H13         2.6200   -0.4112   -1.4712 H         1 <0>         0.1545
@<TRIPOS>BOND
     1    1    2 3
     2    1   30 1
     3    2    3 1
     4    3    8 ar
     5    3    4 ar
     6    4    5 ar
     7    4   31 1
     8    5    6 ar
     9    5   32 1
    10    6    7 ar
    11    6   33 1
    12    7    8 ar
    13    7    9 1
    14    8   34 1
    15    9   10 am
    16    9   35 1
    17   10   11 2
    18   10   12 1
    19   12   17 ar
    20   12   13 ar
    21   13   14 ar
    22   13   36 1
    23   14   15 ar
    24   14   37 1
    25   15   16 ar
    26   15   18 1
    27   16   17 ar
    28   16   38 1
    29   17   39 1
    30   18   19 1
    31   19   20 2
    32   19   21 2
    33   19   22 1
    34   22   27 ar
    35   22   23 ar
    36   23   24 ar
    37   23   40 1
    38   24   25 ar
    39   24   41 1
    40   25   26 ar
    41   25   29 1
    42   26   27 ar
    43   26   28 1
    44   27   42 1
@<TRIPOS>MOLECULE
ZINC41632129
   41    42     0     0     0
SMALL
USER_CHARGES

@<TRIPOS>ATOM
      1 C1          2.3580   -0.3275   -9.9238 C.3       1 <0>        -0.1462
      2 C2          2.3876   -1.1497   -8.6338 C.3       1 <0>        -0.1072
      3 C3          2.0923   -2.6158   -8.9566 C.3       1 <0>        -0.0933
      4 S1          2.1274   -3.5907   -7.4272 S.3       1 <0>        -0.2423
      5 C4          1.7635   -5.2810   -7.9757 C.3       1 <0>        -0.0203
      6 C5          1.7621   -6.2059   -6.7859 C.ar      1 <0>         0.1863
      7 C6          0.5961   -6.4340   -6.0797 C.ar      1 <0>        -0.3071
      8 C7          0.6385   -7.2973   -4.9854 C.ar      1 <0>         0.4453
      9 O1         -0.4814   -7.5494   -4.2653 O.3       1 <0>        -0.6982
     10 N1          1.7910   -7.8689   -4.6592 N.ar      1 <0>        -0.6129
     11 C8          2.8885   -7.6251   -5.3614 C.ar      1 <0>         0.3203
     12 N2          2.8770   -6.8133   -6.4089 N.ar      1 <0>        -0.5718
     13 S2          4.3982   -8.4046   -4.8947 S.3       1 <0>         0.0298
     14 C9          3.9475   -9.4047   -3.4500 C.3       1 <0>        -0.1385
     15 C10         5.1653  -10.1341   -2.9442 C.2       1 <0>         0.5442
     16 O2          6.2324   -9.9932   -3.5034 O.2       1 <0>        -0.5058
     17 N3          5.0688  -10.9430   -1.8705 N.am      1 <0>        -0.6826
     18 C11         6.1742  -11.7030   -1.4640 C.ar      1 <0>         0.0688
     19 C12         6.3775  -12.9735   -1.9897 C.ar      1 <0>         0.1394
     20 C13         7.4697  -13.7205   -1.5859 C.ar      1 <0>        -0.1615
     21 C14         8.3583  -13.2048   -0.6606 C.ar      1 <0>        -0.0558
     22 C15         8.1595  -11.9413   -0.1354 C.ar      1 <0>        -0.1618
     23 C16         7.0728  -11.1859   -0.5385 C.ar      1 <0>         0.1411
     24 F1          6.8824   -9.9492   -0.0289 F         1 <0>        -0.1210
     25 F2          5.5095  -13.4784   -2.8934 F         1 <0>        -0.1211
     26 H1          3.1120   -0.7067  -10.6136 H         1 <0>         0.0549
     27 H2          1.3726   -0.4071  -10.3828 H         1 <0>         0.0546
     28 H3          2.5684    0.7170   -9.6938 H         1 <0>         0.0579
     29 H4          3.3730   -1.0701   -8.1747 H         1 <0>         0.0712
     30 H5          1.6337   -0.7706   -7.9439 H         1 <0>         0.0707
     31 H6          1.1069   -2.6954   -9.4157 H         1 <0>         0.0770
     32 H7          2.8462   -2.9950   -9.6465 H         1 <0>         0.0779
     33 H8          0.7850   -5.3046   -8.4554 H         1 <0>         0.0896
     34 H9          2.5243   -5.6041   -8.6862 H         1 <0>         0.0930
     35 H10        -0.3272   -5.9540   -6.3687 H         1 <0>         0.1166
     36 H11         3.5609   -8.7550   -2.6647 H         1 <0>         0.1245
     37 H12         3.1824  -10.1276   -3.7329 H         1 <0>         0.1250
     38 H13         4.2344  -10.9993   -1.3791 H         1 <0>         0.4176
     39 H14         7.6281  -14.7079   -1.9936 H         1 <0>         0.1474
     40 H15         9.2098  -13.7905   -0.3471 H         1 <0>         0.1472
     41 H16         8.8558  -11.5419    0.5871 H         1 <0>         0.1473
@<TRIPOS>BOND
     1    1    2 1
     2    1   26 1
     3    1   27 1
     4    1   28 1
     5    2    3 1
     6    2   29 1
     7    2   30 1
     8    3    4 1
     9    3   31 1
    10    3   32 1
    11    4    5 1
    12    5   33 1
    13    5   34 1
    14    5    6 1
    15    6    7 ar
    16    6   12 ar
    17    7    8 ar
    18    7   35 1
    19    8   10 ar
    20    8    9 1
    21   10   11 ar
    22   11   12 ar
    23   11   13 1
    24   13   14 1
    25   14   15 1
    26   14   36 1
    27   14   37 1
    28   15   16 2
    29   15   17 am
    30   17   18 1
    31   17   38 1
    32   18   23 ar
    33   18   19 ar
    34   19   20 ar
    35   19   25 1
    36   20   21 ar
    37   20   39 1
    38   21   22 ar
    39   21   40 1
    40   22   23 ar
    41   22   41 1
    42   23   24 1
@<TRIPOS>MOLECULE
ZINC55677387
   33    34     0     0     0
SMALL
USER_CHARGES

@<TRIPOS>ATOM
      1 C1         -0.0178    1.4608    0.0101 C.3       1 <0>         0.0941
      2 N1          0.0021   -0.0041    0.0020 N.am      1 <0>        -0.7441
      3 C2          0.6044   -0.6754    1.0035 C.2       1 <0>         0.5663
      4 O1          1.1313   -0.0651    1.9139 O.2       1 <0>        -0.5375
      5 C3          0.6244   -2.1497    0.9954 C.ar      1 <0>        -0.2531
      6 C4          0.0240   -2.8529   -0.0534 C.ar      1 <0>        -0.0311
      7 C5          0.0422   -4.2184   -0.0604 C.ar      1 <0>        -0.1830
      8 C6          0.6583   -4.9168    0.9750 C.ar      1 <0>         0.3200
      9 C7          1.2587   -4.2267    2.0236 C.ar      1 <0>        -0.2746
     10 C8          1.2493   -2.8483    2.0344 C.ar      1 <0>         0.0894
     11 Cl1         2.0031   -1.9823    3.3365 Cl        1 <0>        -0.0629
     12 N2          0.6730   -6.3072    0.9613 N.2       1 <0>        -1.0717
     13 S1          1.4050   -7.1397    2.1916 S.o2      1 <0>         2.6033
     14 O2          2.7936   -6.8501    2.1079 O.2       1 <0>        -1.0118
     15 O3          0.6430   -6.8853    3.3637 O.2       1 <0>        -1.0118
     16 C9          1.2262   -8.8564    1.8374 C.ar      1 <0>        -0.5947
     17 C10         0.1196   -9.5451    2.2974 C.ar      1 <0>        -0.0077
     18 C11        -0.0210  -10.8933    2.0201 C.ar      1 <0>        -0.0475
     19 C12         0.9459  -11.5519    1.2819 C.ar      1 <0>        -0.0640
     20 C13         2.0529  -10.8620    0.8214 C.ar      1 <0>        -0.0476
     21 C14         2.1899   -9.5126    1.0950 C.ar      1 <0>        -0.0078
     22 Cl2         3.2672  -11.6877   -0.1046 Cl        1 <0>        -0.0568
     23 Cl3        -1.4104  -11.7584    2.5989 Cl        1 <0>        -0.0568
     24 H1          1.0048    1.8381    0.0023 H         1 <0>         0.0545
     25 H2         -0.5450    1.8219   -0.8730 H         1 <0>         0.0680
     26 H3         -0.5280    1.8123    0.9069 H         1 <0>         0.0545
     27 H4         -0.4183   -0.4908   -0.7241 H         1 <0>         0.3974
     28 H5         -0.4550   -2.3157   -0.8586 H         1 <0>         0.1177
     29 H6         -0.4231   -4.7586   -0.8716 H         1 <0>         0.1258
     30 H7          1.7352   -4.7704    2.8259 H         1 <0>         0.1148
     31 H8         -0.6352   -9.0309    2.8738 H         1 <0>         0.1555
     32 H9          0.8367  -12.6043    1.0654 H         1 <0>         0.1477
     33 H10         3.0520   -8.9729    0.7318 H         1 <0>         0.1555
@<TRIPOS>BOND
     1    1    2 1
     2    1   24 1
     3    1   25 1
     4    1   26 1
     5    2    3 am
     6    2   27 1
     7    3    4 2
     8    3    5 1
     9    5   10 ar
    10    5    6 ar
    11    6    7 ar
    12    6   28 1
    13    7    8 ar
    14    7   29 1
    15    8    9 ar
    16    8   12 1
    17    9   10 ar
    18    9   30 1
    19   10   11 1
    20   12   13 1
    21   13   14 2
    22   13   15 2
    23   13   16 1
    24   16   21 ar
    25   16   17 ar
    26   17   18 ar
    27   17   31 1
    28   18   19 ar
    29   18   23 1
    30   19   20 ar
    31   19   32 1
    32   20   21 ar
    33   20   22 1
    34   21   33 1
@<TRIPOS>MOLECULE
ZINC66588250
   43    44     0     0     0
SMALL
USER_CHARGES

@<TRIPOS>ATOM
      1 C1         -0.0187    1.5258    0.0104 C.3       1 <0>        -0.1602
      2 C2          0.0021   -0.0041    0.0020 C.3       1 <0>         0.2295
      3 H1          0.5293   -0.3651    0.8851 H         1 <0>         0.1097
      4 C3         -1.4117   -0.5257    0.0127 C.2       1 <0>        -0.1603
      5 C4         -2.1413   -0.9931    1.0551 C.2       1 <0>        -0.1604
      6 C5         -3.4348   -1.4243    0.8282 C.2       1 <0>        -0.0414
      7 C6         -3.9355   -1.3669   -0.4301 C.2       1 <0>        -0.6599
      8 S1         -2.5631   -0.6810   -1.3428 S.3       1 <0>         0.1495
      9 S2         -5.5297   -1.8403   -1.0126 S.o2      1 <0>         2.6290
     10 O1         -5.3892   -2.1193   -2.3988 O.2       1 <0>        -1.0203
     11 O2         -6.0315   -2.7974   -0.0899 O.2       1 <0>        -1.0177
     12 N1         -6.5090   -0.5101   -0.8944 N.2       1 <0>        -1.0838
     13 C7         -7.8462   -0.5901   -1.2898 C.ar      1 <0>         0.2886
     14 C8         -8.3577   -1.7861   -1.7771 C.ar      1 <0>        -0.2660
     15 C9         -9.6805   -1.8618   -2.1668 C.ar      1 <0>        -0.0389
     16 C10       -10.4954   -0.7485   -2.0728 C.ar      1 <0>        -0.1922
     17 C11        -9.9894    0.4437   -1.5881 C.ar      1 <0>        -0.0540
     18 C12        -8.6691    0.5248   -1.1913 C.ar      1 <0>        -0.1822
     19 C13       -11.9381   -0.8347   -2.4999 C.3       1 <0>        -0.0075
     20 S3        -12.9595   -1.3273   -1.0841 S.3       1 <0>        -0.2781
     21 C14       -14.6433   -1.3841   -1.7564 C.3       1 <0>        -0.1274
     22 N2          0.6878   -0.4765   -1.2033 N.am      1 <0>        -0.7285
     23 C15         2.0310   -0.5870   -1.2149 C.2       1 <0>         0.5149
     24 O3          2.6720   -0.2952   -0.2276 O.2       1 <0>        -0.5463
     25 C16         2.7363   -1.0730   -2.4548 C.3       1 <0>        -0.1756
     26 H2          1.0039    1.9031    0.0027 H         1 <0>         0.0700
     27 H3         -0.5459    1.8868   -0.8726 H         1 <0>         0.0639
     28 H4         -0.5289    1.8773    0.9072 H         1 <0>         0.0737
     29 H5         -1.7180   -1.0285    2.0481 H         1 <0>         0.1391
     30 H6         -4.0374   -1.8015    1.6412 H         1 <0>         0.1468
     31 H7         -7.7216   -2.6557   -1.8515 H         1 <0>         0.0984
     32 H8        -10.0788   -2.7914   -2.5458 H         1 <0>         0.1043
     33 H9        -10.6286    1.3112   -1.5160 H         1 <0>         0.1072
     34 H10        -8.2757    1.4549   -0.8087 H         1 <0>         0.1148
     35 H11       -12.2677    0.1382   -2.8647 H         1 <0>         0.0763
     36 H12       -12.0382   -1.5738   -3.2948 H         1 <0>         0.0753
     37 H13       -14.6866   -2.1117   -2.5668 H         1 <0>         0.0699
     38 H14       -15.3391   -1.6751   -0.9694 H         1 <0>         0.0939
     39 H15       -14.9161   -0.3998   -2.1368 H         1 <0>         0.0699
     40 H16         0.1751   -0.7099   -1.9930 H         1 <0>         0.4033
     41 H17         2.5204   -0.3987   -3.2836 H         1 <0>         0.0898
     42 H18         3.8113   -1.0961   -2.2758 H         1 <0>         0.0932
     43 H19         2.3875   -2.0757   -2.7018 H         1 <0>         0.0899
@<TRIPOS>BOND
     1    1    2 1
     2    1   26 1
     3    1   27 1
     4    1   28 1
     5    2    3 1
     6    2    4 1
     7    2   22 1
     8    4    8 1
     9    4    5 2
    10    5    6 1
    11    5   29 1
    12    6    7 2
    13    6   30 1
    14    7    8 1
    15    7    9 1
    16    9   10 2
    17    9   11 2
    18    9   12 1
    19   12   13 1
    20   13   18 ar
    21   13   14 ar
    22   14   15 ar
    23   14   31 1
    24   15   16 ar
    25   15   32 1
    26   16   17 ar
    27   16   19 1
    28   17   18 ar
    29   17   33 1
    30   18   34 1
    31   19   20 1
    32   19   35 1
    33   19   36 1
    34   20   21 1
    35   21   37 1
    36   21   38 1
    37   21   39 1
    38   22   23 am
    39   22   40 1
    40   23   24 2
    41   23   25 1
    42   25   41 1
    43   25   42 1
    44   25   43 1
@<TRIPOS>MOLECULE
ZINC13195400
   42    44     0     0     0
SMALL
USER_CHARGES
2-methyl-5-[[4-(4-methylsulfanylphenyl)thiazol-2-yl]sulfamoyl]benzoic acid
@<TRIPOS>ATOM
      1 C1         -0.7573   -5.7791   -5.2175 C.3       1 <0>        -0.1222
      2 C2         -0.0229   -5.4800   -3.9360 C.ar      1 <0>         0.0149
      3 C3         -0.7028   -4.9571   -2.8553 C.ar      1 <0>        -0.1551
      4 C4         -0.0313   -4.6876   -1.6761 C.ar      1 <0>        -0.0174
      5 C5          1.3275   -4.9295   -1.5755 C.ar      1 <0>        -0.7073
      6 C6          2.0195   -5.4520   -2.6480 C.ar      1 <0>         0.0339
      7 C7          1.3469   -5.7317   -3.8394 C.ar      1 <0>        -0.1383
      8 C8          2.0816   -6.2910   -4.9926 C.2       1 <0>         0.4904
      9 O1          1.4771   -6.6389   -5.9871 O.co2     1 <0>        -0.6175
     10 S1          2.1742   -4.5758   -0.0712 S.o2      1 <0>         2.6775
     11 O2          3.3284   -5.4045   -0.0503 O.2       1 <0>        -0.9233
     12 O3          1.1976   -4.6035    0.9607 O.2       1 <0>        -0.9340
     13 N1          2.7149   -3.0136   -0.1693 N.pl3     1 <0>        -0.9906
     14 C9          1.8070   -1.9689   -0.2315 C.2       1 <0>         0.3562
     15 N2          2.0325   -0.6707   -0.3184 N.2       1 <0>        -0.5281
     16 C10         1.0272    0.2006   -0.3639 C.2       1 <0>         0.1207
     17 C11        -0.2583   -0.2595   -0.3314 C.2       1 <0>        -0.2212
     18 S2          0.0206   -2.0221   -0.2227 S.3       1 <0>         0.0619
     19 C12         1.3002    1.6556   -0.4551 C.ar      1 <0>        -0.0240
     20 C13         0.2424    2.5621   -0.5140 C.ar      1 <0>        -0.0830
     21 C14         0.4983    3.9144   -0.5939 C.ar      1 <0>        -0.1344
     22 C15         1.8103    4.3739   -0.6265 C.ar      1 <0>        -0.0794
     23 C16         2.8667    3.4712   -0.5732 C.ar      1 <0>        -0.1014
     24 C17         2.6151    2.1185   -0.4879 C.ar      1 <0>        -0.0648
     25 S3          2.1347    6.1023   -0.7361 S.3       1 <0>        -0.1209
     26 C18         0.4854    6.8565   -0.7782 C.3       1 <0>        -0.1441
     27 H1         -1.0312   -6.8338   -5.2416 H         1 <0>         0.0771
     28 H2         -1.6585   -5.1684   -5.2709 H         1 <0>         0.0485
     29 H3         -0.1133   -5.5514   -6.0670 H         1 <0>         0.1079
     30 H4         -1.7625   -4.7622   -2.9285 H         1 <0>         0.1310
     31 H5         -0.5692   -4.2825   -0.8318 H         1 <0>         0.1339
     32 H6          3.0791   -5.6447   -2.5665 H         1 <0>         0.1505
     33 H7          3.6672   -2.8300   -0.1833 H         1 <0>         0.4419
     34 H8         -1.1875    0.2901   -0.3627 H         1 <0>         0.2023
     35 H9         -0.7768    2.2053   -0.4932 H         1 <0>         0.1300
     36 H10        -0.3207    4.6171   -0.6354 H         1 <0>         0.1261
     37 H11         3.8850    3.8302   -0.5983 H         1 <0>         0.1307
     38 H12         3.4358    1.4177   -0.4469 H         1 <0>         0.1406
     39 H13        -0.0560    6.5971    0.1316 H         1 <0>         0.0841
     40 H14         0.5830    7.9400   -0.8465 H         1 <0>         0.1085
     41 H15        -0.0617    6.4856   -1.6449 H         1 <0>         0.0845
     42 O4          3.4220   -6.4153   -4.9412 O.co2     1 <0>        -0.7458
@<TRIPOS>BOND
     1    1    2 1
     2    1   27 1
     3    1   28 1
     4    1   29 1
     5    2    7 ar
     6    2    3 ar
     7    3    4 ar
     8    3   30 1
     9    4    5 ar
    10    4   31 1
    11    5    6 ar
    12    5   10 1
    13    6    7 ar
    14    6   32 1
    15    7    8 1
    16    8    9 2
    17    8   42 1
    18   10   11 2
    19   10   12 2
    20   10   13 1
    21   13   14 1
    22   13   33 1
    23   14   18 1
    24   14   15 2
    25   15   16 1
    26   16   17 2
    27   16   19 1
    28   17   18 1
    29   17   34 1
    30   19   24 ar
    31   19   20 ar
    32   20   21 ar
    33   20   35 1
    34   21   22 ar
    35   21   36 1
    36   22   23 ar
    37   22   25 1
    38   23   24 ar
    39   23   37 1
    40   24   38 1
    41   25   26 1
    42   26   39 1
    43   26   40 1
    44   26   41 1
@<TRIPOS>MOLECULE
ZINC17089572
   51    53     0     0     0
SMALL
USER_CHARGES
(1S,6R)-6-[(5-ethyl-3-methoxycarbonyl-4-phenyl-2-thienyl)carbamoyl]cyclohex-3-ene-1-carboxylic acid
@<TRIPOS>ATOM
      1 C1          5.8805   -2.6509    5.0478 C.3       1 <0>        -0.1510
      2 C2          4.4488   -2.5863    5.5837 C.3       1 <0>        -0.0293
      3 C3          3.4777   -2.6836    4.4354 C.2       1 <0>        -0.2077
      4 C4          2.9243   -3.7979    3.8926 C.2       1 <0>        -0.0260
      5 C5          2.0072   -3.5981    2.7863 C.2       1 <0>        -0.2302
      6 C6          1.7927   -2.2871    2.3820 C.2       1 <0>         0.1189
      7 S1          2.7805   -1.3647    3.4635 S.3       1 <0>         0.2362
      8 N1          0.9777   -1.8267    1.3603 N.am      1 <0>        -0.5979
      9 C7          0.8885   -0.5048    1.1132 C.2       1 <0>         0.5348
     10 O1          1.5216    0.2818    1.7850 O.2       1 <0>        -0.5026
     11 C8          0.0021   -0.0041    0.0020 C.3       1 <0>        -0.0834
     12 H1         -0.1883   -0.8104   -0.7063 H         1 <0>         0.0949
     13 C9          0.6840    1.1644   -0.7130 C.3       1 <0>        -0.0694
     14 C10         0.7133    2.3704    0.1795 C.2       1 <0>        -0.1609
     15 C11        -0.0306    2.5142    1.2290 C.2       1 <0>        -0.1260
     16 C12        -1.0192    1.4907    1.7056 C.3       1 <0>        -0.0726
     17 C13        -1.3261    0.4933    0.5864 C.3       1 <0>        -0.1185
     18 H2         -1.9081    0.9850   -0.1931 H         1 <0>         0.0882
     19 C14        -2.1018   -0.6719    1.1448 C.2       1 <0>         0.4666
     20 O2         -1.6429   -1.7879    1.0838 O.co2     1 <0>        -0.6394
     21 C15         1.3445   -4.7229    2.1263 C.2       1 <0>         0.5436
     22 O3          1.8733   -5.2678    1.1759 O.2       1 <0>        -0.5052
     23 O4          0.1470   -5.1558    2.5716 O.3       1 <0>        -0.3418
     24 C16        -0.4519   -6.2763    1.8686 C.3       1 <0>         0.0361
     25 C17         3.2367   -5.1518    4.4088 C.ar      1 <0>        -0.0269
     26 C18         4.5289   -5.6628    4.2959 C.ar      1 <0>        -0.0996
     27 C19         4.8147   -6.9224    4.7819 C.ar      1 <0>        -0.1228
     28 C20         3.8199   -7.6813    5.3718 C.ar      1 <0>        -0.1212
     29 C21         2.5347   -7.1814    5.4823 C.ar      1 <0>        -0.1202
     30 C22         2.2380   -5.9214    5.0040 C.ar      1 <0>        -0.1021
     31 H3          6.0302   -3.5952    4.5243 H         1 <0>         0.0590
     32 H4          6.0482   -1.8230    4.3590 H         1 <0>         0.0580
     33 H5          6.5828   -2.5805    5.8784 H         1 <0>         0.0595
     34 H6          4.2991   -1.6420    6.1072 H         1 <0>         0.0770
     35 H7          4.2811   -3.4142    6.2726 H         1 <0>         0.0807
     36 H8          0.4713   -2.4558    0.8229 H         1 <0>         0.4307
     37 H9          1.7042    0.8828   -0.9735 H         1 <0>         0.0684
     38 H10         0.1333    1.4019   -1.6233 H         1 <0>         0.0805
     39 H11         1.3974    3.1682   -0.0694 H         1 <0>         0.0975
     40 H12         0.0659    3.4278    1.7968 H         1 <0>         0.0967
     41 H13        -1.9399    1.9904    2.0067 H         1 <0>         0.0767
     42 H14        -0.6035    0.9576    2.5606 H         1 <0>         0.0696
     43 H15        -0.6074   -6.0083    0.8235 H         1 <0>         0.0635
     44 H16         0.2118   -7.1389    1.9276 H         1 <0>         0.0579
     45 H17        -1.4097   -6.5227    2.3268 H         1 <0>         0.1009
     46 H18         5.3055   -5.0728    3.8318 H         1 <0>         0.1249
     47 H19         5.8161   -7.3181    4.6977 H         1 <0>         0.1215
     48 H20         4.0473   -8.6680    5.7473 H         1 <0>         0.1194
     49 H21         1.7620   -7.7785    5.9436 H         1 <0>         0.1222
     50 H22         1.2342   -5.5325    5.0902 H         1 <0>         0.1272
     51 O5         -3.3024   -0.4698    1.7100 O.co2     1 <0>        -0.7567
@<TRIPOS>BOND
     1    1    2 1
     2    1   31 1
     3    1   32 1
     4    1   33 1
     5    2    3 1
     6    2   34 1
     7    2   35 1
     8    3    7 1
     9    3    4 2
    10    4    5 1
    11    4   25 1
    12    5    6 2
    13    5   21 1
    14    6    7 1
    15    6    8 1
    16    8    9 am
    17    8   36 1
    18    9   10 2
    19    9   11 1
    20   11   12 1
    21   11   17 1
    22   11   13 1
    23   13   14 1
    24   13   37 1
    25   13   38 1
    26   14   15 2
    27   14   39 1
    28   15   16 1
    29   15   40 1
    30   16   17 1
    31   16   41 1
    32   16   42 1
    33   17   18 1
    34   17   19 1
    35   19   20 2
    36   19   51 1
    37   21   22 2
    38   21   23 1
    39   23   24 1
    40   24   43 1
    41   24   44 1
    42   24   45 1
    43   25   30 ar
    44   25   26 ar
    45   26   27 ar
    46   26   46 1
    47   27   28 ar
    48   27   47 1
    49   28   29 ar
    50   28   48 1
    51   29   30 ar
    52   29   49 1
    53   30   50 1
@<TRIPOS>MOLECULE
ZINC02479174
   39    41     0     0     0
SMALL
USER_CHARGES

@<TRIPOS>ATOM
      1 C1         -0.0157    1.3058    0.0092 C.2       1 <0>        -0.1791
      2 C2          0.0021   -0.0041    0.0020 C.2       1 <0>        -0.1640
      3 C3         -1.2926   -0.7753    0.0102 C.3       1 <0>         0.1589
      4 N1         -1.3176   -1.6997   -1.1260 N.pl3     1 <0>        -0.6950
      5 C4         -2.4166   -2.5212   -1.3275 C.ar      1 <0>         0.3915
      6 C5         -2.4338   -3.4173   -2.4237 C.ar      1 <0>         0.4134
      7 N2         -3.4709   -4.2026   -2.6263 N.ar      1 <0>        -0.5708
      8 C6         -4.5176   -4.1538   -1.7887 C.ar      1 <0>         0.1075
      9 C7         -5.6349   -4.9815   -1.9833 C.ar      1 <0>        -0.1009
     10 C8         -6.6854   -4.9138   -1.1187 C.ar      1 <0>        -0.1230
     11 C9         -6.6686   -4.0325   -0.0409 C.ar      1 <0>        -0.1460
     12 C10        -5.6010   -3.2152    0.1777 C.ar      1 <0>        -0.0810
     13 C11        -4.5003   -3.2585   -0.6928 C.ar      1 <0>         0.0526
     14 N3         -3.4354   -2.4670   -0.4952 N.ar      1 <0>        -0.5205
     15 N4         -1.3516   -3.4677   -3.2896 N.2       1 <0>        -1.0668
     16 S1         -1.3664   -4.5138   -4.5733 S.o2      1 <0>         2.6350
     17 O1         -1.3425   -5.8259   -4.0282 O.2       1 <0>        -1.0088
     18 O2         -2.3958   -4.0704   -5.4468 O.2       1 <0>        -1.0088
     19 C12         0.1542   -4.2997   -5.4374 C.ar      1 <0>        -0.6120
     20 C13         0.2458   -3.3678   -6.4543 C.ar      1 <0>        -0.0174
     21 C14         1.4385   -3.1991   -7.1321 C.ar      1 <0>        -0.1170
     22 C15         2.5406   -3.9630   -6.7927 C.ar      1 <0>        -0.0535
     23 C16         2.4485   -4.8954   -5.7750 C.ar      1 <0>        -0.1171
     24 C17         1.2569   -5.0596   -5.0943 C.ar      1 <0>        -0.0176
     25 Br1         4.1725   -3.7332   -7.7200 Br        1 <0>        -0.0550
     26 H1          0.9122    1.8585    0.0033 H         1 <0>         0.0980
     27 H2         -0.9582    1.8330    0.0166 H         1 <0>         0.0979
     28 H3          0.9446   -0.5313   -0.0098 H         1 <0>         0.1128
     29 H4         -1.3737   -1.3393    0.9394 H         1 <0>         0.0674
     30 H5         -2.1295   -0.0812   -0.0676 H         1 <0>         0.0630
     31 H6         -0.5655   -1.7372   -1.7373 H         1 <0>         0.4208
     32 H7         -5.6615   -5.6692   -2.8156 H         1 <0>         0.1215
     33 H8         -7.5431   -5.5520   -1.2716 H         1 <0>         0.1147
     34 H9         -7.5136   -3.9962    0.6307 H         1 <0>         0.1140
     35 H10        -5.6011   -2.5367    1.0179 H         1 <0>         0.1185
     36 H11        -0.6149   -2.7716   -6.7195 H         1 <0>         0.1464
     37 H12         1.5098   -2.4713   -7.9268 H         1 <0>         0.1370
     38 H13         3.3088   -5.4920   -5.5097 H         1 <0>         0.1370
     39 H14         1.1860   -5.7847   -4.2970 H         1 <0>         0.1464
@<TRIPOS>BOND
     1    1    2 2
     2    1   26 1
     3    1   27 1
     4    2    3 1
     5    2   28 1
     6    3    4 1
     7    3   29 1
     8    3   30 1
     9    4    5 1
    10    4   31 1
    11    5   14 ar
    12    5    6 ar
    13    6    7 ar
    14    6   15 1
    15    7    8 ar
    16    8   13 ar
    17    8    9 ar
    18    9   10 ar
    19    9   32 1
    20   10   11 ar
    21   10   33 1
    22   11   12 ar
    23   11   34 1
    24   12   13 ar
    25   12   35 1
    26   13   14 ar
    27   15   16 1
    28   16   17 2
    29   16   18 2
    30   16   19 1
    31   19   24 ar
    32   19   20 ar
    33   20   21 ar
    34   20   36 1
    35   21   22 ar
    36   21   37 1
    37   22   23 ar
    38   22   25 1
    39   23   24 ar
    40   23   38 1
    41   24   39 1
@<TRIPOS>MOLECULE
ZINC44300453
   41    41     0     0     0
SMALL
USER_CHARGES

@<TRIPOS>ATOM
      1 C1         -0.0187    1.5258    0.0104 C.3       1 <0>        -0.1854
      2 C2          0.0021   -0.0041    0.0020 C.3       1 <0>         0.1352
      3 C3          0.7421   -0.5109    1.2415 C.3       1 <0>        -0.1830
      4 C4         -1.4333   -0.5336    0.0129 C.3       1 <0>        -0.1366
      5 O1          0.6709   -0.4649   -1.1737 O.3       1 <0>        -0.3622
      6 C5          1.9522   -0.0848   -1.3367 C.2       1 <0>         0.6492
      7 O2          2.4879    0.6189   -0.5034 O.2       1 <0>        -0.5756
      8 N1          2.6407   -0.4850   -2.4240 N.am      1 <0>        -0.6710
      9 C6          4.0349   -0.0714   -2.6014 C.3       1 <0>         0.1027
     10 H1          4.5261   -0.0235   -1.6295 H         1 <0>         0.0852
     11 C7          4.7587   -1.0856   -3.4893 C.3       1 <0>        -0.0728
     12 C8          4.8240   -2.4152   -2.7829 C.ar      1 <0>        -0.0753
     13 C9          5.9425   -2.7514   -2.0443 C.ar      1 <0>        -0.0585
     14 C10         6.0035   -3.9715   -1.3957 C.ar      1 <0>        -0.0907
     15 C11         4.9450   -4.8582   -1.4846 C.ar      1 <0>        -0.0614
     16 C12         3.8247   -4.5263   -2.2224 C.ar      1 <0>        -0.1065
     17 C13         3.7594   -3.2996   -2.8690 C.ar      1 <0>         0.1468
     18 O3          2.6558   -2.9681   -3.5901 O.3       1 <0>        -0.3222
     19 C14         2.6491   -3.3347   -4.9713 C.3       1 <0>         0.0314
     20 Br1         2.3788   -5.7389   -2.3449 Br        1 <0>        -0.0312
     21 Br2         7.5359   -4.4286   -0.3863 Br        1 <0>        -0.0404
     22 C15         4.0770    1.2868   -3.2529 C.2       1 <0>         0.4928
     23 O4          5.0007    2.0472   -3.0182 O.co2     1 <0>        -0.6892
     24 O5          3.1873    1.6254   -4.0147 O.co2     1 <0>        -0.6832
     25 H2          1.0039    1.9031    0.0027 H         1 <0>         0.0912
     26 H3         -0.5459    1.8868   -0.8726 H         1 <0>         0.0579
     27 H4         -0.5289    1.8773    0.9072 H         1 <0>         0.0617
     28 H5          0.2319   -0.1594    2.1383 H         1 <0>         0.0625
     29 H6          0.7568   -1.6008    1.2356 H         1 <0>         0.0545
     30 H7          1.7647   -0.1336    1.2338 H         1 <0>         0.0893
     31 H8         -1.9605   -0.1726   -0.8702 H         1 <0>         0.0643
     32 H9         -1.4185   -1.6235    0.0069 H         1 <0>         0.0628
     33 H10        -1.9435   -0.1821    0.9097 H         1 <0>         0.0738
     34 H11         2.2131   -1.0467   -3.0892 H         1 <0>         0.4047
     35 H12         4.2163   -1.1991   -4.4279 H         1 <0>         0.0844
     36 H13         5.7696   -0.7330   -3.6941 H         1 <0>         0.0977
     37 H14         6.7700   -2.0610   -1.9738 H         1 <0>         0.1474
     38 H15         4.9946   -5.8104   -0.9773 H         1 <0>         0.1434
     39 H16         2.7429   -4.4170   -5.0603 H         1 <0>         0.0500
     40 H17         1.7134   -3.0124   -5.4282 H         1 <0>         0.1031
     41 H18         3.4857   -2.8545   -5.4788 H         1 <0>         0.0532
@<TRIPOS>BOND
     1    1    2 1
     2    1   25 1
     3    1   26 1
     4    1   27 1
     5    2    3 1
     6    2    4 1
     7    2    5 1
     8    3   28 1
     9    3   29 1
    10    3   30 1
    11    4   31 1
    12    4   32 1
    13    4   33 1
    14    5    6 1
    15    6    7 2
    16    6    8 am
    17    8    9 1
    18    8   34 1
    19    9   10 1
    20    9   11 1
    21    9   22 1
    22   11   12 1
    23   11   35 1
    24   11   36 1
    25   12   17 ar
    26   12   13 ar
    27   13   14 ar
    28   13   37 1
    29   14   15 ar
    30   14   21 1
    31   15   16 ar
    32   15   38 1
    33   16   17 ar
    34   16   20 1
    35   17   18 1
    36   18   19 1
    37   19   39 1
    38   19   40 1
    39   19   41 1
    40   22   23 2
    41   22   24 1
@<TRIPOS>MOLECULE
ZINC59886931
   52    54     0     0     0
SMALL
USER_CHARGES

@<TRIPOS>ATOM
      1 C1          2.2668   -1.6963   -1.3693 C.3       1 <0>        -0.1424
      2 C2          0.9926   -1.4004   -0.5757 C.3       1 <0>        -0.6029
      3 S1         -0.2240   -2.7125   -0.8741 S.o2      1 <0>         2.5253
      4 O1         -0.6753   -2.6645   -2.2206 O.2       1 <0>        -1.0293
      5 O2          0.2240   -3.9343   -0.3033 O.2       1 <0>        -1.0302
      6 N1         -1.5436   -2.2828    0.0294 N.2       1 <0>        -1.0933
      7 C3         -2.6850   -3.0916    0.0291 C.ar      1 <0>         0.2821
      8 C4         -2.7094   -4.2582   -0.7246 C.ar      1 <0>        -0.2423
      9 C5         -3.8355   -5.0565   -0.7245 C.ar      1 <0>        -0.0853
     10 C6         -4.9442   -4.6933    0.0291 C.ar      1 <0>         0.0192
     11 C7         -4.9201   -3.5270    0.7822 C.ar      1 <0>        -0.0672
     12 C8         -3.7916   -2.7313    0.7867 C.ar      1 <0>        -0.1439
     13 C9         -3.7630   -1.4689    1.6093 C.3       1 <0>        -0.0759
     14 N2         -6.0869   -5.5035    0.0292 N.am      1 <0>        -0.6484
     15 C10        -7.3086   -4.9453    0.1400 C.2       1 <0>         0.5423
     16 O3         -7.4261   -3.7353    0.1431 O.2       1 <0>        -0.5211
     17 C11        -8.5057   -5.8045    0.2577 C.ar      1 <0>        -0.1080
     18 C12        -8.3738   -7.1941    0.2602 C.ar      1 <0>        -0.0881
     19 C13        -9.4951   -7.9901    0.3708 C.ar      1 <0>        -0.1021
     20 C14       -10.7483   -7.4140    0.4791 C.ar      1 <0>        -0.0665
     21 C15       -10.8862   -6.0372    0.4768 C.ar      1 <0>        -0.1028
     22 C16        -9.7726   -5.2296    0.3726 C.ar      1 <0>        -0.0604
     23 C17       -11.9687   -8.2898    0.5996 C.3       1 <0>        -0.0863
     24 S2        -12.3031   -8.6234    2.3511 S.3       1 <0>         0.0460
     25 C18       -13.7387   -9.6445    2.3241 C.2       1 <0>         0.0233
     26 N3        -14.3950  -10.1609    3.3422 N.2       1 <0>        -0.4975
     27 C19       -15.4643  -10.9133    3.1527 C.2       1 <0>         0.0762
     28 C20       -15.8491  -11.1258    1.8713 C.2       1 <0>        -0.2352
     29 S3        -14.6087  -10.1909    0.9910 S.3       1 <0>         0.1030
     30 C21       -16.2222  -11.5094    4.3108 C.3       1 <0>        -0.0806
     31 H1          2.9978   -0.9079   -1.1900 H         1 <0>         0.0673
     32 H2          2.6793   -2.6536   -1.0505 H         1 <0>         0.0639
     33 H3          2.0310   -1.7383   -2.4326 H         1 <0>         0.0639
     34 H4          1.2283   -1.3585    0.4877 H         1 <0>         0.1186
     35 H5          0.5801   -0.4432   -0.8944 H         1 <0>         0.1187
     36 H6         -1.8474   -4.5405   -1.3109 H         1 <0>         0.1049
     37 H7         -3.8546   -5.9633   -1.3108 H         1 <0>         0.1033
     38 H8         -5.7825   -3.2444    1.3676 H         1 <0>         0.1176
     39 H9         -4.1304   -0.6361    1.0096 H         1 <0>         0.0473
     40 H10        -4.3977   -1.5926    2.4868 H         1 <0>         0.0369
     41 H11        -2.7403   -1.2650    1.9264 H         1 <0>         0.0717
     42 H12        -5.9989   -6.4662   -0.0505 H         1 <0>         0.3982
     43 H13        -7.3961   -7.6451    0.1754 H         1 <0>         0.1326
     44 H14        -9.3944   -9.0654    0.3726 H         1 <0>         0.1328
     45 H15       -11.8673   -5.5938    0.5613 H         1 <0>         0.1333
     46 H16        -9.8811   -4.1551    0.3758 H         1 <0>         0.1427
     47 H17       -12.8255   -7.7822    0.1565 H         1 <0>         0.1060
     48 H18       -11.7938   -9.2305    0.0776 H         1 <0>         0.1059
     49 H19       -16.6801  -11.6992    1.4880 H         1 <0>         0.1976
     50 H20       -17.0009  -10.8169    4.6304 H         1 <0>         0.0766
     51 H21       -16.6772  -12.4503    4.0016 H         1 <0>         0.0763
     52 H22       -15.5365  -11.6921    5.1383 H         1 <0>         0.0764
@<TRIPOS>BOND
     1    1    2 1
     2    1   31 1
     3    1   32 1
     4    1   33 1
     5    2    3 1
     6    2   34 1
     7    2   35 1
     8    3    4 2
     9    3    5 2
    10    3    6 1
    11    6    7 1
    12    7   12 ar
    13    7    8 ar
    14    8    9 ar
    15    8   36 1
    16    9   10 ar
    17    9   37 1
    18   10   11 ar
    19   10   14 1
    20   11   12 ar
    21   11   38 1
    22   12   13 1
    23   13   39 1
    24   13   40 1
    25   13   41 1
    26   14   15 am
    27   14   42 1
    28   15   16 2
    29   15   17 1
    30   17   22 ar
    31   17   18 ar
    32   18   19 ar
    33   18   43 1
    34   19   20 ar
    35   19   44 1
    36   20   21 ar
    37   20   23 1
    38   21   22 ar
    39   21   45 1
    40   22   46 1
    41   23   24 1
    42   23   47 1
    43   23   48 1
    44   24   25 1
    45   25   29 1
    46   25   26 2
    47   26   27 1
    48   27   28 2
    49   27   30 1
    50   28   29 1
    51   28   49 1
    52   30   50 1
    53   30   51 1
    54   30   52 1
@<TRIPOS>MOLECULE
ZINC03067017
   51    54     0     0     0
SMALL
USER_CHARGES
5-[[4-[4-[(4,6-dioxo-2-thioxo-hexahydropyrimidin-5-ylidene)methylamino]phenoxy]phenyl]aminomethylene]-2-thioxo-hexahydropyrimidine-4,6-dione
@<TRIPOS>ATOM
      1 C1         -1.8838    8.5504   -0.8086 C.ar      1 <0>        -0.1394
      2 C2         -2.0052    9.9254   -0.8306 C.ar      1 <0>        -0.0810
      3 C3         -1.7162   10.6661    0.3068 C.ar      1 <0>         0.0696
      4 C4         -1.3107   10.0249    1.4687 C.ar      1 <0>        -0.0987
      5 C5         -1.1949    8.6495    1.4941 C.ar      1 <0>        -0.1218
      6 C6         -1.4839    7.9074    0.3559 C.ar      1 <0>         0.1304
      7 N1         -1.3668    6.5135    0.3809 N.pl3     1 <0>        -0.5951
      8 C7         -1.6476    5.7931   -0.7246 C.2       1 <0>         0.3332
      9 C8         -1.6363    4.4114   -0.6709 C.2       1 <0>        -0.4136
     10 C9         -2.0596    3.5934   -1.8215 C.2       1 <0>         0.5777
     11 O1         -2.4318    4.1151   -2.8557 O.2       1 <0>        -0.4866
     12 N2         -2.0228    2.2507   -1.6971 N.am      1 <0>        -0.6135
     13 C10        -1.6141    1.6630   -0.5638 C.2       1 <0>         0.5493
     14 S1         -1.6006   -0.0477   -0.4971 S.2       1 <0>        -0.5109
     15 N3         -1.2206    2.3436    0.5218 N.am      1 <0>        -0.6133
     16 C11        -1.2008    3.6923    0.5397 C.2       1 <0>         0.5736
     17 O2         -0.8371    4.2987    1.5298 O.2       1 <0>        -0.5077
     18 O3         -1.8309   12.0204    0.2828 O.3       1 <0>        -0.2490
     19 C12        -0.6900   12.7563    0.2157 C.ar      1 <0>         0.1143
     20 C13         0.5455   12.1277    0.2786 C.ar      1 <0>        -0.1623
     21 C14         1.7046   12.8739    0.2047 C.ar      1 <0>        -0.1120
     22 C15         1.6339   14.2555    0.0785 C.ar      1 <0>         0.0905
     23 C16         0.3968   14.8846    0.0213 C.ar      1 <0>        -0.0945
     24 C17        -0.7614   14.1365    0.0900 C.ar      1 <0>        -0.1084
     25 N4          2.8082   15.0129    0.0094 N.pl3     1 <0>        -0.5880
     26 C18         4.0094   14.4016    0.0649 C.2       1 <0>         0.3340
     27 C19         5.1670   15.1559    0.1232 C.2       1 <0>        -0.4198
     28 C20         5.1233   16.6223    0.2637 C.2       1 <0>         0.5725
     29 O4          4.0612   17.2120    0.3323 O.2       1 <0>        -0.5085
     30 N5          6.2926   17.2926    0.3198 N.am      1 <0>        -0.6134
     31 C21         7.4695   16.6561    0.2395 C.2       1 <0>         0.5508
     32 S2          8.9027   17.5898    0.3122 S.2       1 <0>        -0.5161
     33 N6          7.5839   15.3273    0.1049 N.am      1 <0>        -0.6137
     34 C22         6.4984   14.5291    0.0412 C.2       1 <0>         0.5775
     35 O5          6.6152   13.3240   -0.0803 O.2       1 <0>        -0.4896
     36 H1         -2.1044    7.9744   -1.6952 H         1 <0>         0.1440
     37 H2         -2.3210   10.4251   -1.7345 H         1 <0>         0.1469
     38 H3         -1.0860   10.6020    2.3535 H         1 <0>         0.1446
     39 H4         -0.8799    8.1505    2.3986 H         1 <0>         0.1437
     40 H5         -1.0837    6.0650    1.1930 H         1 <0>         0.4349
     41 H6         -1.8813    6.2956   -1.6516 H         1 <0>         0.1878
     42 H7         -2.2981    1.6978   -2.4450 H         1 <0>         0.4488
     43 H8         -0.9404    1.8550    1.3116 H         1 <0>         0.4479
     44 H9          0.6003   11.0539    0.3808 H         1 <0>         0.1404
     45 H10         2.6662   12.3841    0.2493 H         1 <0>         0.1381
     46 H11         0.3410   15.9586   -0.0772 H         1 <0>         0.1446
     47 H12        -1.7234   14.6255    0.0456 H         1 <0>         0.1474
     48 H13         2.7585   15.9777   -0.0785 H         1 <0>         0.4338
     49 H14         4.0671   13.3232    0.0639 H         1 <0>         0.1851
     50 H15         6.2815   18.2577    0.4165 H         1 <0>         0.4473
     51 H16         8.4675   14.9307    0.0524 H         1 <0>         0.4481
@<TRIPOS>BOND
     1    1    6 ar
     2    1    2 ar
     3    1   36 1
     4    2    3 ar
     5    2   37 1
     6    3    4 ar
     7    3   18 1
     8    4    5 ar
     9    4   38 1
    10    5    6 ar
    11    5   39 1
    12    6    7 1
    13    7    8 1
    14    7   40 1
    15    8    9 2
    16    8   41 1
    17    9   16 1
    18    9   10 1
    19   10   11 2
    20   10   12 am
    21   12   13 1
    22   12   42 1
    23   13   14 2
    24   13   15 1
    25   15   16 am
    26   15   43 1
    27   16   17 2
    28   18   19 1
    29   19   24 ar
    30   19   20 ar
    31   20   21 ar
    32   20   44 1
    33   21   22 ar
    34   21   45 1
    35   22   23 ar
    36   22   25 1
    37   23   24 ar
    38   23   46 1
    39   24   47 1
    40   25   26 1
    41   25   48 1
    42   26   27 2
    43   26   49 1
    44   27   34 1
    45   27   28 1
    46   28   29 2
    47   28   30 am
    48   30   31 1
    49   30   50 1
    50   31   32 2
    51   31   33 1
    52   33   34 am
    53   33   51 1
    54   34   35 2
@<TRIPOS>MOLECULE
ZINC13519137
   57    59     0     0     0
SMALL
USER_CHARGES
(2R,3S,4S,5S,6R)-2-[(2R,3S,4R,5R,6S)-3,5-dihydroxy-2-(hydroxymethyl)-6-(4-nitrophenoxy)tetrahydropyran-4-yl]oxy-6-(hydroxymethyl)tetrahydropyran-3,4,5-triol
@<TRIPOS>ATOM
      1 C1         -0.0379    5.3813   -6.3071 C.ar      1 <0>        -0.0175
      2 C2          0.7779    4.5877   -5.5241 C.ar      1 <0>        -0.1475
      3 C3          0.4094    4.2898   -4.2202 C.ar      1 <0>         0.1828
      4 C4         -0.7806    4.7858   -3.7077 C.ar      1 <0>        -0.1836
      5 C5         -1.5903    5.5833   -4.4930 C.ar      1 <0>        -0.0134
      6 C6         -1.2208    5.8786   -5.7922 C.ar      1 <0>        -0.0807
      7 N1         -2.0927    6.7291   -6.6331 N.pl3     1 <0>         0.0333
      8 O1         -1.7680    6.9902   -7.7776 O.2       1 <0>        -0.1622
      9 O2         -3.1350    7.1677   -6.1806 O.3       1 <0>        -0.1633
     10 O3          1.2100    3.5089   -3.4481 O.3       1 <0>        -0.2884
     11 C7          0.7674    3.2437   -2.1155 C.3       1 <0>         0.2282
     12 H1         -0.2343    2.8150   -2.1438 H         1 <0>         0.0824
     13 C8          1.7268    2.2564   -1.4459 C.3       1 <0>         0.0794
     14 H2          2.7364    2.6673   -1.4537 H         1 <0>         0.0983
     15 C9          1.2801    2.0237    0.0007 C.3       1 <0>         0.1107
     16 H3          1.9895    1.3647    0.5013 H         1 <0>         0.1097
     17 C10         1.2283    3.3696    0.7302 C.3       1 <0>         0.0861
     18 H4          0.8582    3.2201    1.7445 H         1 <0>         0.0912
     19 C11         0.2881    4.3139   -0.0235 C.3       1 <0>         0.0705
     20 H5         -0.7198    3.8991   -0.0242 H         1 <0>         0.0885
     21 O4          0.7433    4.4625   -1.3699 O.3       1 <0>        -0.3726
     22 C12         0.2774    5.6801    0.6652 C.3       1 <0>         0.0791
     23 O5         -0.6863    6.5248    0.0328 O.3       1 <0>        -0.5615
     24 O6          2.5386    3.9378    0.7776 O.3       1 <0>        -0.5454
     25 O7         -0.0173    1.4248    0.0099 O.3       1 <0>        -0.3842
     26 C13         0.0021   -0.0041    0.0020 C.3       1 <0>         0.2141
     27 H6          0.6596   -0.3543   -0.7936 H         1 <0>         0.1309
     28 C14        -1.4148   -0.5326   -0.2365 C.3       1 <0>         0.0611
     29 H7         -1.7989   -0.1341   -1.1755 H         1 <0>         0.0790
     30 C15        -2.3187   -0.0863    0.9168 C.3       1 <0>         0.0856
     31 H8         -2.3803    1.0018    0.9335 H         1 <0>         0.0855
     32 C16        -1.7265   -0.5863    2.2380 C.3       1 <0>         0.0938
     33 H9         -1.7124   -1.6762    2.2415 H         1 <0>         0.0821
     34 C17        -0.2976   -0.0557    2.3810 C.3       1 <0>         0.1037
     35 H10        -0.3163    1.0335    2.4181 H         1 <0>         0.0788
     36 O8          0.4813   -0.4811    1.2609 O.3       1 <0>        -0.3588
     37 C18         0.3224   -0.5996    3.6697 C.3       1 <0>         0.0881
     38 O9          1.6118   -0.0144    3.8619 O.3       1 <0>        -0.5681
     39 O10        -2.5220   -0.1155    3.3278 O.3       1 <0>        -0.5579
     40 O11        -3.6257   -0.6364    0.7402 O.3       1 <0>        -0.5527
     41 O12        -1.3881   -1.9600   -0.2974 O.3       1 <0>        -0.5328
     42 O13         1.7091    1.0167   -2.1564 O.3       1 <0>        -0.5547
     43 H11         0.2484    5.6131   -7.3223 H         1 <0>         0.1619
     44 H12         1.7020    4.1997   -5.9266 H         1 <0>         0.1564
     45 H13        -1.0717    4.5519   -2.6943 H         1 <0>         0.1529
     46 H14        -2.5150    5.9727   -4.0933 H         1 <0>         0.1567
     47 H15         0.0169    5.5551    1.7163 H         1 <0>         0.0704
     48 H16         1.2653    6.1341    0.5873 H         1 <0>         0.0608
     49 H17        -0.7475    7.4093    0.4188 H         1 <0>         0.3871
     50 H18         2.5804    4.7932    1.2267 H         1 <0>         0.3888
     51 H19        -0.3194   -0.3506    4.5148 H         1 <0>         0.0740
     52 H20         0.4222   -1.6825    3.5960 H         1 <0>         0.0559
     53 H21         2.0645   -0.3143    4.6620 H         1 <0>         0.3840
     54 H22        -3.4414   -0.4140    3.3014 H         1 <0>         0.3925
     55 H23        -4.0610   -0.3611   -0.0782 H         1 <0>         0.3851
     56 H24        -0.8297   -2.3132   -1.0035 H         1 <0>         0.3838
     57 H25         1.9814    1.0896   -3.0814 H         1 <0>         0.3922
@<TRIPOS>BOND
     1    1    6 ar
     2    1    2 ar
     3    1   43 1
     4    2    3 ar
     5    2   44 1
     6    3    4 ar
     7    3   10 1
     8    4    5 ar
     9    4   45 1
    10    5    6 ar
    11    5   46 1
    12    6    7 1
    13    7    8 2
    14    7    9 1
    15   10   11 1
    16   11   12 1
    17   11   21 1
    18   11   13 1
    19   13   14 1
    20   13   15 1
    21   13   42 1
    22   15   16 1
    23   15   17 1
    24   15   25 1
    25   17   18 1
    26   17   19 1
    27   17   24 1
    28   19   20 1
    29   19   21 1
    30   19   22 1
    31   22   23 1
    32   22   47 1
    33   22   48 1
    34   23   49 1
    35   24   50 1
    36   25   26 1
    37   26   27 1
    38   26   36 1
    39   26   28 1
    40   28   29 1
    41   28   30 1
    42   28   41 1
    43   30   31 1
    44   30   32 1
    45   30   40 1
    46   32   33 1
    47   32   34 1
    48   32   39 1
    49   34   35 1
    50   34   36 1
    51   34   37 1
    52   37   38 1
    53   37   51 1
    54   37   52 1
    55   38   53 1
    56   39   54 1
    57   40   55 1
    58   41   56 1
    59   42   57 1
@<TRIPOS>MOLECULE
ZINC17216045
   49    51     0     0     0
SMALL
USER_CHARGES
(2E)-N-(3-acetylphenyl)-2-(aminocarbamothioylhydrazono)-2-[(1R,2S)-1,3-dioxo-4H-benzo[b][1,4]thiazin-2-yl]acetamide
@<TRIPOS>ATOM
      1 C1        -11.1209    7.0262    2.4446 C.3       1 <0>        -0.2056
      2 C2         -9.7546    7.3050    1.8732 C.2       1 <0>         0.3969
      3 O1         -9.5017    8.3975    1.4119 O.2       1 <0>        -0.4561
      4 C3         -8.7271    6.2512    1.8752 C.ar      1 <0>        -0.1518
      5 C4         -9.0157    4.9898    2.4067 C.ar      1 <0>        -0.0820
      6 C5         -8.0504    4.0048    2.4068 C.ar      1 <0>        -0.1095
      7 C6         -6.7960    4.2586    1.8829 C.ar      1 <0>        -0.0865
      8 C7         -6.4978    5.5083    1.3521 C.ar      1 <0>         0.1308
      9 C8         -7.4575    6.5083    1.3513 C.ar      1 <0>        -0.0805
     10 N1         -5.2272    5.7584    0.8239 N.am      1 <0>        -0.6551
     11 C9         -4.5414    4.7676    0.2202 C.2       1 <0>         0.5504
     12 O2         -5.0764    3.6938    0.0166 O.2       1 <0>        -0.5158
     13 C10        -3.1514    4.9835   -0.1910 C.2       1 <0>         0.0636
     14 N2         -2.5385    4.0875   -0.9089 N.2       1 <0>        -0.1396
     15 N3         -3.2468    2.9881   -1.4113 N.pl3     1 <0>        -0.5233
     16 C11        -2.6378    2.1145   -2.2375 C.2       1 <0>         0.5902
     17 S1         -3.5217    0.8094   -2.9055 S.2       1 <0>        -0.6017
     18 N4         -1.3343    2.2716   -2.5421 N.pl3     1 <0>        -0.5312
     19 N5         -0.6651    3.3870   -2.1250 N.3       1 <0>        -0.5724
     20 C12        -2.4318    6.2431    0.2174 C.3       1 <0>        -0.3907
     21 H1         -3.2379    6.9882    0.2874 H         1 <0>         0.1678
     22 C13        -1.9150    6.0985    1.6255 C.2       1 <0>         0.5371
     23 O3         -2.5639    6.5780    2.5311 O.2       1 <0>        -0.5024
     24 N6         -0.7818    5.4708    1.9221 N.am      1 <0>        -0.6719
     25 C14         0.1446    4.9587    1.0219 C.ar      1 <0>         0.2167
     26 C15         1.0802    4.0269    1.4695 C.ar      1 <0>        -0.1580
     27 C16         1.9972    3.4869    0.5926 C.ar      1 <0>        -0.0484
     28 C17         1.9974    3.8654   -0.7377 C.ar      1 <0>        -0.1478
     29 C18         1.0759    4.7931   -1.1888 C.ar      1 <0>        -0.0016
     30 C19         0.1587    5.3358   -0.3137 C.ar      1 <0>        -0.4608
     31 S2         -1.0145    6.5247   -0.8878 S.o       1 <0>         1.3905
     32 O4         -0.4150    7.7757   -0.5798 O.2       1 <0>        -0.8152
     33 H2        -11.1602    5.9902    2.8122 H         1 <0>         0.0859
     34 H3        -11.8812    7.1668    1.6622 H         1 <0>         0.0983
     35 H4        -11.3186    7.7182    3.2765 H         1 <0>         0.0981
     36 H5         -9.9940    4.7874    2.8171 H         1 <0>         0.1399
     37 H6         -8.2749    3.0317    2.8178 H         1 <0>         0.1370
     38 H7         -6.0447    3.4827    1.8866 H         1 <0>         0.1369
     39 H8         -7.2262    7.4812    0.9434 H         1 <0>         0.1399
     40 H9         -4.7876    6.7638    0.9012 H         1 <0>         0.4446
     41 H10        -4.3000    2.8379   -1.1315 H         1 <0>         0.4662
     42 H11        -0.8094    1.5016   -3.1266 H         1 <0>         0.4566
     43 H12         0.3794    3.3371   -2.4665 H         1 <0>         0.3590
     44 H13        -1.1462    4.2821   -2.5461 H         1 <0>         0.3337
     45 H14        -0.4992    5.3134    2.9735 H         1 <0>         0.4437
     46 H15         1.0866    3.7266    2.5069 H         1 <0>         0.1283
     47 H16         2.7184    2.7649    0.9461 H         1 <0>         0.1305
     48 H17         2.7151    3.4379   -1.4222 H         1 <0>         0.1335
     49 H18         1.0741    5.0917   -2.2267 H         1 <0>         0.1316
@<TRIPOS>BOND
     1    1    2 1
     2    1   33 1
     3    1   34 1
     4    1   35 1
     5    2    3 2
     6    2    4 1
     7    4    9 ar
     8    4    5 ar
     9    5    6 ar
    10    5   36 1
    11    6    7 ar
    12    6   37 1
    13    7    8 ar
    14    7   38 1
    15    8    9 ar
    16    8   10 1
    17    9   39 1
    18   10   11 am
    19   10   40 1
    20   11   12 2
    21   11   13 1
    22   13   14 2
    23   13   20 1
    24   14   15 1
    25   15   16 1
    26   15   41 1
    27   16   17 2
    28   16   18 1
    29   18   19 1
    30   18   42 1
    31   19   43 1
    32   19   44 1
    33   20   21 1
    34   20   31 1
    35   20   22 1
    36   22   23 2
    37   22   24 am
    38   24   25 1
    39   24   45 1
    40   25   30 ar
    41   25   26 ar
    42   26   27 ar
    43   26   46 1
    44   27   28 ar
    45   27   47 1
    46   28   29 ar
    47   28   48 1
    48   29   30 ar
    49   29   49 1
    50   30   31 1
    51   31   32 2
@<TRIPOS>MOLECULE
ZINC39293322
   66    70     0     0     0
SMALL
USER_CHARGES

@<TRIPOS>ATOM
      1 C1         -0.0173    1.4248    0.0099 C.3       1 <0>         0.0256
      2 O1          0.0021   -0.0041    0.0020 O.3       1 <0>        -0.3035
      3 C2          0.6262   -0.6188    1.0422 C.ar      1 <0>         0.1191
      4 C3          1.2127    0.1160    2.0683 C.ar      1 <0>        -0.1721
      5 C4          1.8987   -0.4899    3.1052 C.ar      1 <0>        -0.0907
      6 C5          1.9954   -1.8660    3.1778 C.ar      1 <0>        -0.0912
      7 C6          1.3288   -2.6041    2.2219 C.ar      1 <0>        -0.1255
      8 C7          0.6978   -2.0126    1.1237 C.ar      1 <0>         0.0886
      9 O2          0.2617   -2.9523    0.2548 O.3       1 <0>        -0.2835
     10 C8          0.8775   -4.2194    0.5869 C.3       1 <0>         0.0927
     11 H1          1.8244   -4.3427    0.0614 H         1 <0>         0.1047
     12 C9          1.1130   -4.0875    2.0915 C.3       1 <0>        -0.0072
     13 C10         2.3404   -4.8445    2.5812 C.3       1 <0>        -0.1192
     14 C11         2.2109   -5.0228    4.0997 C.3       1 <0>         0.1144
     15 N1          2.1302   -3.7150    4.7536 N.pl3     1 <0>        -0.5358
     16 C12         2.8573   -2.5702    4.1910 C.3       1 <0>         0.1685
     17 C13         1.3720   -3.5588    5.8959 C.ar      1 <0>         0.6632
     18 N2          0.7180   -4.5972    6.4075 N.ar      1 <0>        -0.6079
     19 C14        -0.0106   -4.4461    7.5065 C.ar      1 <0>         0.6092
     20 N3         -0.0865   -3.2583    8.0951 N.ar      1 <0>        -0.6951
     21 C15         0.5663   -2.2206    7.5849 C.ar      1 <0>         0.6089
     22 N4          1.2994   -2.3709    6.4889 N.ar      1 <0>        -0.6003
     23 O3          0.4878   -1.0105    8.1854 O.3       1 <0>        -0.2938
     24 C16        -0.3152   -0.9221    9.3641 C.3       1 <0>         0.0397
     25 C17        -0.2827    0.5118    9.8970 C.3       1 <0>         0.0002
     26 N5         -0.9195    1.4100    8.9246 N.4       1 <0>        -0.6404
     27 O4         -0.6766   -5.5027    8.0270 O.3       1 <0>        -0.2942
     28 C18        -1.4413   -5.2681    9.2111 C.3       1 <0>         0.0398
     29 C19        -2.1178   -6.5692    9.6475 C.3       1 <0>         0.0001
     30 N6         -1.0930   -7.5481   10.0342 N.4       1 <0>        -0.6401
     31 C20        -0.0934   -4.4887    2.8806 C.2       1 <0>        -0.1371
     32 C21        -1.2120   -4.9146    2.3887 C.2       1 <0>        -0.1638
     33 C22        -1.4230   -5.0680    0.9056 C.3       1 <0>         0.1326
     34 H2         -1.8378   -4.1469    0.4961 H         1 <0>         0.0783
     35 C23        -0.0800   -5.3570    0.2536 C.3       1 <0>        -0.1089
     36 O5         -2.3191   -6.1528    0.6559 O.3       1 <0>        -0.5570
     37 H3          1.0053    1.8021    0.0021 H         1 <0>         0.0601
     38 H4         -0.5445    1.7859   -0.8732 H         1 <0>         0.1074
     39 H5         -0.5275    1.7763    0.9067 H         1 <0>         0.0541
     40 H6          1.1298    1.1927    2.0544 H         1 <0>         0.1358
     41 H7          2.3640    0.1193    3.8660 H         1 <0>         0.1313
     42 H8          2.3886   -5.8205    2.0982 H         1 <0>         0.1038
     43 H9          3.2408   -4.2744    2.3524 H         1 <0>         0.0892
     44 H10         1.3093   -5.5940    4.3211 H         1 <0>         0.1054
     45 H11         3.0801   -5.5622    4.4759 H         1 <0>         0.0842
     46 H12         3.7694   -2.9219    3.7087 H         1 <0>         0.1084
     47 H13         3.1161   -1.8767    4.9911 H         1 <0>         0.1067
     48 H14        -1.3424   -1.1978    9.1255 H         1 <0>         0.0975
     49 H15         0.0764   -1.6004   10.1222 H         1 <0>         0.1183
     50 H16        -0.8214    0.5600   10.8433 H         1 <0>         0.1612
     51 H17         0.7518    0.8185   10.0517 H         1 <0>         0.1497
     52 H18        -0.4208    1.3654    8.0486 H         1 <0>         0.4428
     53 H19        -1.8771    1.1261    8.7813 H         1 <0>         0.4357
     54 H20        -0.7826   -4.9170   10.0054 H         1 <0>         0.0983
     55 H21        -2.2014   -4.5134    9.0093 H         1 <0>         0.1178
     56 H22        -2.7708   -6.3718   10.4976 H         1 <0>         0.1613
     57 H23        -2.7070   -6.9672    8.8213 H         1 <0>         0.1492
     58 H24        -0.4885   -7.7309    9.2473 H         1 <0>         0.4429
     59 H25        -0.5475   -7.1798   10.7989 H         1 <0>         0.4358
     60 H26        -0.0243   -4.4169    3.9559 H         1 <0>         0.1060
     61 H27        -2.0178   -5.1679    3.0617 H         1 <0>         0.1140
     62 H28        -0.1948   -5.4322   -0.8277 H         1 <0>         0.0960
     63 H29         0.3160   -6.2938    0.6459 H         1 <0>         0.0969
     64 H30        -3.1923   -6.0417    1.0562 H         1 <0>         0.3811
     65 H31        -0.8981    2.3556    9.2760 H         1 <0>         0.4453
     66 H32        -1.5391   -8.4062   10.3219 H         1 <0>         0.4454
@<TRIPOS>BOND
     1    1    2 1
     2    1   37 1
     3    1   38 1
     4    1   39 1
     5    2    3 1
     6    3    8 ar
     7    3    4 ar
     8    4    5 ar
     9    4   40 1
    10    5    6 ar
    11    5   41 1
    12    6   16 1
    13    6    7 ar
    14    7   12 1
    15    7    8 ar
    16    8    9 1
    17    9   10 1
    18   10   11 1
    19   10   35 1
    20   10   12 1
    21   12   13 1
    22   12   31 1
    23   13   14 1
    24   13   42 1
    25   13   43 1
    26   14   15 1
    27   14   44 1
    28   14   45 1
    29   15   16 1
    30   15   17 1
    31   16   46 1
    32   16   47 1
    33   17   22 ar
    34   17   18 ar
    35   18   19 ar
    36   19   20 ar
    37   19   27 1
    38   20   21 ar
    39   21   22 ar
    40   21   23 1
    41   23   24 1
    42   24   25 1
    43   24   48 1
    44   24   49 1
    45   25   26 1
    46   25   50 1
    47   25   51 1
    48   26   52 1
    49   26   53 1
    50   26   65 1
    51   27   28 1
    52   28   29 1
    53   28   54 1
    54   28   55 1
    55   29   30 1
    56   29   56 1
    57   29   57 1
    58   30   58 1
    59   30   59 1
    60   30   66 1
    61   31   32 2
    62   31   60 1
    63   32   33 1
    64   32   61 1
    65   33   34 1
    66   33   35 1
    67   33   36 1
    68   35   62 1
    69   35   63 1
    70   36   64 1
@<TRIPOS>MOLECULE
ZINC49785711
   62    65     0     0     0
SMALL
USER_CHARGES

@<TRIPOS>ATOM
      1 C1         -0.0187    1.5258    0.0104 C.3       1 <0>        -0.1676
      2 C2          0.0021   -0.0041    0.0020 C.3       1 <0>         0.0916
      3 N1          0.7106   -0.4894    1.1889 N.pl3     1 <0>        -0.4541
      4 C3          2.0591   -0.7390    1.2909 C.ar      1 <0>         0.1310
      5 C4          3.1434   -0.6439    0.4279 C.ar      1 <0>        -0.1683
      6 C5          4.4035   -0.9912    0.8894 C.ar      1 <0>         0.3192
      7 N2          4.5902   -1.4096    2.1317 N.ar      1 <0>        -0.5329
      8 C6          3.5912   -1.5196    2.9985 C.ar      1 <0>         0.3579
      9 C7          2.2790   -1.1866    2.6096 C.ar      1 <0>         0.0014
     10 N3          1.0876   -1.1892    3.2334 N.2       1 <0>        -0.4354
     11 C8          0.1554   -0.7750    2.4101 C.2       1 <0>         0.3454
     12 C9         -1.2785   -0.6396    2.7460 C.2       1 <0>         0.1258
     13 C10        -1.8891   -0.9348    4.0485 C.2       1 <0>         0.3627
     14 N4         -3.1689   -0.6966    3.9645 N.2       1 <0>        -0.3405
     15 O1         -3.4447   -0.2500    2.6489 O.3       1 <0>         0.0536
     16 N5         -2.2210   -0.2305    1.9357 N.2       1 <0>        -0.2426
     17 N6         -1.2189   -1.3898    5.1764 N.pl3     1 <0>        -0.8026
     18 C11         3.8475   -1.9779    4.3307 C.1       1 <0>        -0.1354
     19 C12         4.0577   -2.3536    5.4229 C.1       1 <0>        -0.1074
     20 C13         4.3213   -2.8247    6.7924 C.3       1 <0>         0.2385
     21 C14         3.0105   -2.8598    7.5807 C.3       1 <0>        -0.1788
     22 C15         4.9235   -4.2302    6.7412 C.3       1 <0>        -0.1408
     23 O2          5.2390   -1.9364    7.4333 O.3       1 <0>        -0.5437
     24 O3          5.4672   -0.9010    0.0510 O.3       1 <0>        -0.2826
     25 C16         6.7425   -1.2714    0.5787 C.3       1 <0>         0.1458
     26 H1          6.6105   -2.0343    1.3460 H         1 <0>         0.1113
     27 C17         7.4171   -0.0427    1.1919 C.3       1 <0>        -0.1633
     28 C18         6.6046    0.4374    2.3962 C.3       1 <0>        -0.0113
     29 N7          7.2523    1.6171    2.9850 N.4       1 <0>        -0.6372
     30 C19         7.6053   -1.8176   -0.5296 C.ar      1 <0>        -0.1122
     31 C20         7.5877   -1.2217   -1.7768 C.ar      1 <0>        -0.0922
     32 C21         8.3792   -1.7226   -2.7934 C.ar      1 <0>        -0.1192
     33 C22         9.1886   -2.8192   -2.5626 C.ar      1 <0>        -0.1016
     34 C23         9.2069   -3.4145   -1.3152 C.ar      1 <0>        -0.1164
     35 C24         8.4187   -2.9109   -0.2974 C.ar      1 <0>        -0.1009
     36 H2          1.0039    1.9031    0.0027 H         1 <0>         0.0626
     37 H3         -0.5459    1.8868   -0.8726 H         1 <0>         0.0917
     38 H4         -0.5289    1.8773    0.9072 H         1 <0>         0.0654
     39 H5         -1.0205   -0.3814    0.0098 H         1 <0>         0.1141
     40 H6          0.5123   -0.3556   -0.8948 H         1 <0>         0.1055
     41 H7          3.0066   -0.3046   -0.5883 H         1 <0>         0.1538
     42 H8         -0.2610   -1.5392    5.1441 H         1 <0>         0.4283
     43 H9         -1.7087   -1.5583    5.9965 H         1 <0>         0.4210
     44 H10         2.3105   -3.5373    7.0918 H         1 <0>         0.0763
     45 H11         3.2057   -3.2086    8.5948 H         1 <0>         0.0825
     46 H12         2.5815   -1.8584    7.6172 H         1 <0>         0.0657
     47 H13         5.8573   -4.2052    6.1795 H         1 <0>         0.0681
     48 H14         5.1186   -4.5791    7.7552 H         1 <0>         0.0816
     49 H15         4.2235   -4.9078    6.2523 H         1 <0>         0.0790
     50 H16         4.9222   -1.0252    7.5010 H         1 <0>         0.3800
     51 H17         8.4248   -0.3046    1.5146 H         1 <0>         0.1086
     52 H18         7.4688    0.7525    0.4482 H         1 <0>         0.0994
     53 H19         5.5969    0.6992    2.0736 H         1 <0>         0.1250
     54 H20         6.5529   -0.3578    3.1399 H         1 <0>         0.1466
     55 H21         7.3002    2.3532    2.2966 H         1 <0>         0.4339
     56 H22         6.7166    1.9337    3.7792 H         1 <0>         0.4381
     57 H23         6.9553   -0.3649   -1.9570 H         1 <0>         0.1261
     58 H24         8.3649   -1.2575   -3.7680 H         1 <0>         0.1287
     59 H25         9.8065   -3.2110   -3.3571 H         1 <0>         0.1292
     60 H26         9.8391   -4.2715   -1.1350 H         1 <0>         0.1304
     61 H27         8.4357   -3.3738    0.6783 H         1 <0>         0.1257
     62 H28         8.1852    1.3747    3.2837 H         1 <0>         0.4360
@<TRIPOS>BOND
     1    1    2 1
     2    1   36 1
     3    1   37 1
     4    1   38 1
     5    2    3 1
     6    2   39 1
     7    2   40 1
     8    3   11 1
     9    3    4 1
    10    4    9 ar
    11    4    5 ar
    12    5    6 ar
    13    5   41 1
    14    6    7 ar
    15    6   24 1
    16    7    8 ar
    17    8    9 ar
    18    8   18 1
    19    9   10 1
    20   10   11 2
    21   11   12 1
    22   12   16 2
    23   12   13 1
    24   13   14 2
    25   13   17 1
    26   14   15 1
    27   15   16 1
    28   17   42 1
    29   17   43 1
    30   18   19 3
    31   19   20 1
    32   20   21 1
    33   20   22 1
    34   20   23 1
    35   21   44 1
    36   21   45 1
    37   21   46 1
    38   22   47 1
    39   22   48 1
    40   22   49 1
    41   23   50 1
    42   24   25 1
    43   25   26 1
    44   25   27 1
    45   25   30 1
    46   27   28 1
    47   27   51 1
    48   27   52 1
    49   28   29 1
    50   28   53 1
    51   28   54 1
    52   29   55 1
    53   29   56 1
    54   29   62 1
    55   30   35 ar
    56   30   31 ar
    57   31   32 ar
    58   31   57 1
    59   32   33 ar
    60   32   58 1
    61   33   34 ar
    62   33   59 1
    63   34   35 ar
    64   34   60 1
    65   35   61 1
@<TRIPOS>MOLECULE
ZINC02632921
   43    44     0     0     0
SMALL
USER_CHARGES
N-[(5,6-dichloro-3-pyridyl)carbonylaminocarbamoylmethyl]-N,4-dimethyl-benzenesulfonamide
@<TRIPOS>ATOM
      1 C1          6.0392   -0.4659    3.4128 C.3       1 <0>        -0.1256
      2 C2          5.3407    0.7737    2.9163 C.ar      1 <0>        -0.0255
      3 C3          6.0050    1.6549    2.0838 C.ar      1 <0>        -0.1409
      4 C4          5.3643    2.7919    1.6283 C.ar      1 <0>        -0.0113
      5 C5          4.0589    3.0473    2.0046 C.ar      1 <0>        -0.6716
      6 C6          3.3961    2.1686    2.8410 C.ar      1 <0>        -0.0063
      7 C7          4.0355    1.0293    3.2930 C.ar      1 <0>        -0.1403
      8 S1          3.2421    4.4966    1.4240 S.o2      1 <0>         2.6906
      9 O1          4.2597    5.4345    1.1014 O.2       1 <0>        -0.9467
     10 O2          2.2103    4.7831    2.3581 O.2       1 <0>        -0.9545
     11 N1          2.4949    4.1004    0.0003 N.pl3     1 <0>        -0.9795
     12 C8          3.2083    4.2570   -1.2697 C.3       1 <0>         0.0933
     13 C9          1.1205    3.5933    0.0107 C.3       1 <0>         0.1068
     14 C10         1.1410    2.0865    0.0024 C.2       1 <0>         0.4869
     15 O3          2.1994    1.4944   -0.0109 O.2       1 <0>        -0.5138
     16 N2         -0.0169    1.3968    0.0097 N.am      1 <0>        -0.5181
     17 N3          0.0021   -0.0041    0.0020 N.am      1 <0>        -0.5150
     18 C11        -1.1558   -0.6938    0.0094 C.2       1 <0>         0.5712
     19 O4         -2.2167   -0.1004    0.0227 O.2       1 <0>        -0.5194
     20 C12        -1.1358   -2.1715    0.0012 C.ar      1 <0>        -0.1698
     21 C13        -2.3324   -2.8996    0.0146 C.ar      1 <0>         0.0125
     22 C14        -2.2595   -4.2812    0.0011 C.ar      1 <0>        -0.0857
     23 C15        -1.0159   -4.8944   -0.0141 C.ar      1 <0>         0.2081
     24 N4          0.0948   -4.1807   -0.0213 N.ar      1 <0>        -0.4586
     25 C16         0.0753   -2.8639   -0.0140 C.ar      1 <0>         0.1610
     26 Cl1        -0.9178   -6.6276   -0.0243 Cl        1 <0>         0.0105
     27 Cl2        -3.7090   -5.2366    0.0099 Cl        1 <0>        -0.0131
     28 H1          6.5462   -0.2456    4.3523 H         1 <0>         0.0794
     29 H2          5.3063   -1.2568    3.5723 H         1 <0>         0.0721
     30 H3          6.7704   -0.7919    2.6731 H         1 <0>         0.0730
     31 H4          7.0248    1.4552    1.7895 H         1 <0>         0.1315
     32 H5          5.8834    3.4805    0.9782 H         1 <0>         0.1371
     33 H6          2.3777    2.3704    3.1385 H         1 <0>         0.1313
     34 H7          3.5163    0.3407    3.9431 H         1 <0>         0.1290
     35 H8          3.0301    5.2568   -1.6657 H         1 <0>         0.0683
     36 H9          4.2767    4.1161   -1.1060 H         1 <0>         0.0763
     37 H10         2.8490    3.5146   -1.9823 H         1 <0>         0.0762
     38 H11         0.5934    3.9544   -0.8724 H         1 <0>         0.1285
     39 H12         0.6103    3.9448    0.9075 H         1 <0>         0.1335
     40 H13        -0.8635    1.8703    0.0163 H         1 <0>         0.4365
     41 H14         0.8486   -0.4776   -0.0086 H         1 <0>         0.4325
     42 H15        -3.2873   -2.3954    0.0310 H         1 <0>         0.1735
     43 H16         1.0054   -2.3150   -0.0203 H         1 <0>         0.1760
@<TRIPOS>BOND
     1    1    2 1
     2    1   28 1
     3    1   29 1
     4    1   30 1
     5    2    7 ar
     6    2    3 ar
     7    3    4 ar
     8    3   31 1
     9    4    5 ar
    10    4   32 1
    11    5    6 ar
    12    5    8 1
    13    6    7 ar
    14    6   33 1
    15    7   34 1
    16    8    9 2
    17    8   10 2
    18    8   11 1
    19   11   12 1
    20   11   13 1
    21   12   35 1
    22   12   36 1
    23   12   37 1
    24   13   14 1
    25   13   38 1
    26   13   39 1
    27   14   15 2
    28   14   16 am
    29   16   17 1
    30   16   40 1
    31   17   18 am
    32   17   41 1
    33   18   19 2
    34   18   20 1
    35   20   25 ar
    36   20   21 ar
    37   21   22 ar
    38   21   42 1
    39   22   23 ar
    40   22   27 1
    41   23   24 ar
    42   23   26 1
    43   24   25 ar
    44   25   43 1
@<TRIPOS>MOLECULE
ZINC10641310
   53    56     0     0     0
SMALL
USER_CHARGES
N-[4-acetylamino-2-(trifluoromethyl)phenyl]-1-(2,5-dioxabicyclo[4.4.0]deca-7,9,11-trien-8-yl)-5-oxo-pyrrolidine-3-carboxamide
@<TRIPOS>ATOM
      1 C1         -1.2211   16.8071   -7.5662 C.3       1 <0>        -0.1739
      2 C2         -1.6005   15.5987   -6.7495 C.2       1 <0>         0.5112
      3 O1         -1.2521   14.4926   -7.1052 O.2       1 <0>        -0.5206
      4 N1         -2.3268   15.7470   -5.6240 N.am      1 <0>        -0.6754
      5 C3         -2.5888   14.6387   -4.8084 C.ar      1 <0>         0.1327
      6 C4         -1.6477   13.6239   -4.6923 C.ar      1 <0>        -0.0669
      7 C5         -1.9036   12.5344   -3.8845 C.ar      1 <0>        -0.1095
      8 C6         -3.1071   12.4474   -3.1967 C.ar      1 <0>         0.1827
      9 C7         -4.0480   13.4619   -3.3127 C.ar      1 <0>        -0.1951
     10 C8         -3.7895   14.5545   -4.1162 C.ar      1 <0>        -0.0803
     11 C9         -5.3514   13.3702   -2.5619 C.3       1 <0>         0.5110
     12 F1         -6.1281   14.5010   -2.8362 F         1 <0>        -0.1709
     13 F2         -6.0415   12.2217   -2.9642 F         1 <0>        -0.1723
     14 F3         -5.0946   13.3029   -1.1883 F         1 <0>        -0.1770
     15 N2         -3.3693   11.3389   -2.3815 N.am      1 <0>        -0.6705
     16 C10        -2.8057   10.1473   -2.6626 C.2       1 <0>         0.5337
     17 O2         -2.0116   10.0521   -3.5744 O.2       1 <0>        -0.4983
     18 C11        -3.1623    8.9333   -1.8440 C.3       1 <0>        -0.1236
     19 H1         -4.2223    8.6983   -1.9398 H         1 <0>         0.1338
     20 C12        -2.7712    9.1314   -0.3612 C.3       1 <0>        -0.1475
     21 C13        -2.2897    7.7671    0.0810 C.2       1 <0>         0.5202
     22 O3         -2.1551    7.4182    1.2348 O.2       1 <0>        -0.4974
     23 N3         -2.0324    6.9979   -0.9909 N.am      1 <0>        -0.5552
     24 C14        -2.2827    7.7248   -2.2411 C.3       1 <0>         0.1131
     25 C15        -1.5779    5.6745   -0.9234 C.ar      1 <0>         0.1690
     26 C16        -1.4549    4.9222   -2.0839 C.ar      1 <0>        -0.1497
     27 C17        -1.0085    3.6167   -2.0176 C.ar      1 <0>        -0.0835
     28 C18        -0.6820    3.0531   -0.7929 C.ar      1 <0>         0.0276
     29 C19        -0.8014    3.8046    0.3702 C.ar      1 <0>         0.0809
     30 C20        -1.2507    5.1145    0.3033 C.ar      1 <0>        -0.1515
     31 O4         -0.4780    3.2716    1.5802 O.3       1 <0>        -0.3033
     32 C21        -0.3867    1.8446    1.6522 C.3       1 <0>         0.0199
     33 C22         0.4279    1.3540    0.4475 C.3       1 <0>         0.0203
     34 O5         -0.2467    1.7634   -0.7471 O.3       1 <0>        -0.3067
     35 H2         -0.6252   17.4856   -6.9558 H         1 <0>         0.0944
     36 H3         -0.6395   16.4920   -8.4326 H         1 <0>         0.0989
     37 H4         -2.1241   17.3175   -7.9009 H         1 <0>         0.0933
     38 H5         -2.6681   16.6212   -5.3787 H         1 <0>         0.4152
     39 H6         -0.7137   13.6894   -5.2307 H         1 <0>         0.1487
     40 H7         -1.1700   11.7474   -3.7908 H         1 <0>         0.1654
     41 H8         -4.5215   15.3435   -4.2067 H         1 <0>         0.1473
     42 H9         -3.9565   11.4289   -1.6147 H         1 <0>         0.4149
     43 H10        -3.6380    9.4382    0.2243 H         1 <0>         0.1217
     44 H11        -1.9712    9.8662   -0.2704 H         1 <0>         0.1175
     45 H12        -1.3422    8.0654   -2.6743 H         1 <0>         0.1044
     46 H13        -2.8154    7.0880   -2.9475 H         1 <0>         0.1001
     47 H14        -1.7082    5.3581   -3.0390 H         1 <0>         0.1377
     48 H15        -0.9139    3.0332   -2.9215 H         1 <0>         0.1417
     49 H16        -1.3466    5.6991    1.2064 H         1 <0>         0.1670
     50 H17        -1.3862    1.4108    1.6213 H         1 <0>         0.0791
     51 H18         0.1125    1.5537    2.5765 H         1 <0>         0.1242
     52 H19         0.5035    0.2670    0.4730 H         1 <0>         0.1235
     53 H20         1.4254    1.7926    0.4751 H         1 <0>         0.0781
@<TRIPOS>BOND
     1    1    2 1
     2    1   35 1
     3    1   36 1
     4    1   37 1
     5    2    3 2
     6    2    4 am
     7    4    5 1
     8    4   38 1
     9    5   10 ar
    10    5    6 ar
    11    6    7 ar
    12    6   39 1
    13    7    8 ar
    14    7   40 1
    15    8    9 ar
    16    8   15 1
    17    9   10 ar
    18    9   11 1
    19   10   41 1
    20   11   12 1
    21   11   13 1
    22   11   14 1
    23   15   16 am
    24   15   42 1
    25   16   17 2
    26   16   18 1
    27   18   19 1
    28   18   24 1
    29   18   20 1
    30   20   21 1
    31   20   43 1
    32   20   44 1
    33   21   22 2
    34   21   23 am
    35   23   24 1
    36   23   25 1
    37   24   45 1
    38   24   46 1
    39   25   30 ar
    40   25   26 ar
    41   26   27 ar
    42   26   47 1
    43   27   28 ar
    44   27   48 1
    45   28   34 1
    46   28   29 ar
    47   29   30 ar
    48   29   31 1
    49   30   49 1
    50   31   32 1
    51   32   33 1
    52   32   50 1
    53   32   51 1
    54   33   34 1
    55   33   52 1
    56   33   53 1
@<TRIPOS>MOLECULE
ZINC24893164
   47    50     0     0     0
SMALL
USER_CHARGES
(2S)-N-[3-[[5-chloro-2-(1,2,4-triazol-1-yl)phenyl]carbamoyl]phenyl]tetrahydrofuran-2-carboxamide
@<TRIPOS>ATOM
      1 C1          4.2324    5.5791    0.3474 C.ar      1 <0>        -0.1040
      2 C2          2.9572    5.0764    0.1859 C.ar      1 <0>        -0.0973
      3 C3          1.8580    5.9358    0.2266 C.ar      1 <0>        -0.1139
      4 C4          2.0529    7.3002    0.4428 C.ar      1 <0>        -0.0626
      5 C5          3.3370    7.7940    0.6100 C.ar      1 <0>         0.1473
      6 C6          4.4254    6.9308    0.5621 C.ar      1 <0>        -0.1166
      7 N1          3.5379    9.1619    0.8276 N.am      1 <0>        -0.6858
      8 C7          2.6292    9.8742    1.5228 C.2       1 <0>         0.5123
      9 O1          1.6849    9.3140    2.0382 O.2       1 <0>        -0.4930
     10 C8          2.7864   11.3667    1.6597 C.3       1 <0>         0.0575
     11 H1          2.7685   11.7915    0.6452 H         1 <0>         0.1016
     12 C9          4.0572   11.7014    2.4717 C.3       1 <0>        -0.1434
     13 C10         3.6501   12.9288    3.3173 C.3       1 <0>        -0.1544
     14 C11         2.1814   13.1905    2.9161 C.3       1 <0>         0.0423
     15 O2          1.6984   11.9180    2.4332 O.3       1 <0>        -0.3421
     16 C12         0.4915    5.4011    0.0472 C.2       1 <0>         0.5623
     17 O3         -0.4647    6.1507    0.0880 O.2       1 <0>        -0.5130
     18 N2          0.3058    4.0826   -0.1615 N.am      1 <0>        -0.6690
     19 C13        -0.9766    3.5902   -0.4261 C.ar      1 <0>         0.1825
     20 C14        -2.0877    4.2079    0.1302 C.ar      1 <0>        -0.1051
     21 C15        -3.3536    3.7160   -0.1287 C.ar      1 <0>        -0.0136
     22 C16        -3.5169    2.6109   -0.9464 C.ar      1 <0>        -0.1046
     23 C17        -2.4160    1.9938   -1.5086 C.ar      1 <0>        -0.0977
     24 C18        -1.1424    2.4809   -1.2546 C.ar      1 <0>         0.1122
     25 N3         -0.0237    1.8558   -1.8251 N.pl3     1 <0>        -0.3223
     26 C19        -0.0145    0.7186   -2.5468 C.2       1 <0>         0.2697
     27 N4          1.2212    0.4737   -2.9015 N.2       1 <0>        -0.5319
     28 C20         2.0247    1.4255   -2.4284 C.2       1 <0>         0.2216
     29 N5          1.3091    2.2943   -1.7625 N.2       1 <0>        -0.3373
     30 Cl1        -4.7420    4.4865    0.5730 Cl        1 <0>        -0.0494
     31 H2          5.0820    4.9133    0.3112 H         1 <0>         0.1366
     32 H3          2.8102    4.0188    0.0236 H         1 <0>         0.1273
     33 H4          1.2060    7.9693    0.4801 H         1 <0>         0.1487
     34 H5          5.4252    7.3176    0.6926 H         1 <0>         0.1336
     35 H6          4.4374    9.6556    0.4312 H         1 <0>         0.4370
     36 H7          4.3297   10.8392    3.0981 H         1 <0>         0.0815
     37 H8          4.8834   11.9294    1.7822 H         1 <0>         0.0888
     38 H9          3.7506   12.6876    4.3858 H         1 <0>         0.0804
     39 H10         4.3043   13.7778    3.0700 H         1 <0>         0.0843
     40 H11         1.6167   13.5338    3.7955 H         1 <0>         0.1009
     41 H12         2.1471   13.9631    2.1338 H         1 <0>         0.0670
     42 H13         1.1626    3.3937   -0.1238 H         1 <0>         0.4451
     43 H14        -1.9633    5.0704    0.7682 H         1 <0>         0.1670
     44 H15        -4.5078    2.2303   -1.1458 H         1 <0>         0.1495
     45 H16        -2.5471    1.1321   -2.1464 H         1 <0>         0.1473
     46 H17        -0.8761    0.1148   -2.7904 H         1 <0>         0.2260
     47 H18         3.0942    1.4718   -2.5714 H         1 <0>         0.2266
@<TRIPOS>BOND
     1    1    6 ar
     2    1    2 ar
     3    1   31 1
     4    2    3 ar
     5    2   32 1
     6    3    4 ar
     7    3   16 1
     8    4    5 ar
     9    4   33 1
    10    5    6 ar
    11    5    7 1
    12    6   34 1
    13    7    8 am
    14    7   35 1
    15    8    9 2
    16    8   10 1
    17   10   11 1
    18   10   15 1
    19   10   12 1
    20   12   13 1
    21   12   36 1
    22   12   37 1
    23   13   14 1
    24   13   38 1
    25   13   39 1
    26   14   15 1
    27   14   40 1
    28   14   41 1
    29   16   17 2
    30   16   18 am
    31   18   19 1
    32   18   42 1
    33   19   24 ar
    34   19   20 ar
    35   20   21 ar
    36   20   43 1
    37   21   22 ar
    38   21   30 1
    39   22   23 ar
    40   22   44 1
    41   23   24 ar
    42   23   45 1
    43   24   25 1
    44   25   29 1
    45   25   26 1
    46   26   27 2
    47   26   46 1
    48   27   28 1
    49   28   29 2
    50   28   47 1
@<TRIPOS>MOLECULE
ZINC38714640
   51    53     0     0     0
SMALL
USER_CHARGES

@<TRIPOS>ATOM
      1 C1         -0.0187    1.5258    0.0104 C.3       1 <0>        -0.1449
      2 C2          0.0021   -0.0041    0.0020 C.3       1 <0>        -0.1177
      3 C3          0.7182   -0.4975   -1.2568 C.3       1 <0>        -0.6293
      4 S1          0.7428   -2.3113   -1.2668 S.o2      1 <0>         2.6080
      5 O1          1.5760   -2.7952   -0.2223 O.2       1 <0>        -0.9497
      6 O2         -0.5740   -2.8177   -1.4366 O.2       1 <0>        -0.9481
      7 N1          1.5354   -2.7185   -2.6626 N.pl3     1 <0>        -1.0009
      8 C4          0.8078   -2.9122   -3.9277 C.3       1 <0>         0.1169
      9 C5          1.2734   -1.8358   -4.9068 C.3       1 <0>        -0.1011
     10 C6          2.7766   -1.7419   -4.9257 C.ar      1 <0>        -0.0769
     11 C7          3.3699   -1.1450   -6.0326 C.ar      1 <0>        -0.0973
     12 C8          4.7392   -1.0166   -6.1127 C.ar      1 <0>        -0.1492
     13 C9          5.5375   -1.4864   -5.0771 C.ar      1 <0>         0.1483
     14 C10         4.9461   -2.0845   -3.9752 C.ar      1 <0>        -0.1247
     15 C11         3.5672   -2.2164   -3.9023 C.ar      1 <0>        -0.0787
     16 C12         2.9913   -2.8947   -2.6895 C.3       1 <0>         0.1640
     17 N2          6.9266   -1.3574   -5.1461 N.pl3     1 <0>        -1.0572
     18 S2          7.6019    0.0738   -5.6339 S.o2      1 <0>         2.7230
     19 O3          9.0109   -0.1007   -5.5739 O.2       1 <0>        -0.9467
     20 O4          6.9315    0.4531   -6.8280 O.2       1 <0>        -0.9534
     21 C13         7.1923    1.2836   -4.4202 C.2       1 <0>        -0.8218
     22 C14         6.0909    2.0699   -4.4199 C.2       1 <0>         0.2276
     23 N3          6.1477    2.8569   -3.3252 N.pl3     1 <0>        -0.4603
     24 H1          5.4907    3.5216   -3.0655 H         1 <0>         0.4431
     25 N4          7.3228    2.5440   -2.6297 N.2       1 <0>        -0.2877
     26 C15         7.9449    1.5968   -3.2837 C.2       1 <0>         0.1686
     27 C16         9.2494    0.9570   -2.8838 C.3       1 <0>        -0.0925
     28 C17         4.9970    2.0671   -5.4564 C.3       1 <0>        -0.1446
     29 H2          1.0039    1.9031    0.0027 H         1 <0>         0.0575
     30 H3         -0.5459    1.8868   -0.8726 H         1 <0>         0.0590
     31 H4         -0.5289    1.8773    0.9072 H         1 <0>         0.0645
     32 H5          0.5293   -0.3651    0.8851 H         1 <0>         0.0790
     33 H6         -1.0205   -0.3814    0.0098 H         1 <0>         0.0800
     34 H7          0.1910   -0.1364   -2.1398 H         1 <0>         0.1317
     35 H8          1.7408   -0.1202   -1.2645 H         1 <0>         0.1297
     36 H9          1.0288   -3.8997   -4.3328 H         1 <0>         0.0849
     37 H10        -0.2641   -2.8151   -3.7552 H         1 <0>         0.1019
     38 H11         0.9171   -2.0826   -5.9070 H         1 <0>         0.0929
     39 H12         0.8579   -0.8740   -4.6064 H         1 <0>         0.0800
     40 H13         2.7508   -0.7785   -6.8380 H         1 <0>         0.1325
     41 H14         5.1904   -0.5528   -6.9774 H         1 <0>         0.1609
     42 H15         5.5633   -2.4507   -3.1680 H         1 <0>         0.1320
     43 H16         3.4261   -2.4585   -1.7901 H         1 <0>         0.0986
     44 H17         3.2273   -3.9581   -2.7265 H         1 <0>         0.0909
     45 H18         7.4956   -2.1060   -4.9083 H         1 <0>         0.4279
     46 H19        10.0770    1.5139   -3.3231 H         1 <0>         0.0948
     47 H20         9.3410    0.9666   -1.7977 H         1 <0>         0.0835
     48 H21         9.2738   -0.0725   -3.2413 H         1 <0>         0.0876
     49 H22         4.2248    1.3540   -5.1678 H         1 <0>         0.0985
     50 H23         4.5623    3.0640   -5.5285 H         1 <0>         0.0868
     51 H24         5.4127    1.7812   -6.4226 H         1 <0>         0.1280
@<TRIPOS>BOND
     1    1    2 1
     2    1   29 1
     3    1   30 1
     4    1   31 1
     5    2    3 1
     6    2   32 1
     7    2   33 1
     8    3    4 1
     9    3   34 1
    10    3   35 1
    11    4    5 2
    12    4    6 2
    13    4    7 1
    14    7   16 1
    15    7    8 1
    16    8    9 1
    17    8   36 1
    18    8   37 1
    19    9   10 1
    20    9   38 1
    21    9   39 1
    22   10   15 ar
    23   10   11 ar
    24   11   12 ar
    25   11   40 1
    26   12   13 ar
    27   12   41 1
    28   13   14 ar
    29   13   17 1
    30   14   15 ar
    31   14   42 1
    32   15   16 1
    33   16   43 1
    34   16   44 1
    35   17   18 1
    36   17   45 1
    37   18   19 2
    38   18   20 2
    39   18   21 1
    40   21   26 1
    41   21   22 2
    42   22   23 1
    43   22   28 1
    44   23   24 1
    45   23   25 1
    46   25   26 2
    47   26   27 1
    48   27   46 1
    49   27   47 1
    50   27   48 1
    51   28   49 1
    52   28   50 1
    53   28   51 1
@<TRIPOS>MOLECULE
ZINC60295094
   54    56     0     0     0
SMALL
USER_CHARGES

@<TRIPOS>ATOM
      1 C1          0.1220   -1.6882   -0.8846 C.3       1 <0>        -0.1373
      2 C2         -0.7770   -0.9753    0.1276 C.3       1 <0>        -0.1071
      3 C3         -0.0429    0.2422    0.6930 C.3       1 <0>        -0.1616
      4 C4         -2.0629   -0.5194   -0.5648 C.3       1 <0>         0.1526
      5 H1         -1.8250    0.2402   -1.3095 H         1 <0>         0.1139
      6 C5         -3.0066    0.0585    0.4583 C.2       1 <0>         0.5021
      7 O1         -3.9866   -0.5682    0.8016 O.2       1 <0>        -0.4932
      8 N1         -2.7616    1.2717    0.9917 N.am      1 <0>        -0.6733
      9 C6         -3.5978    1.7776    1.9930 C.ar      1 <0>         0.1280
     10 C7         -4.1723    0.9176    2.9202 C.ar      1 <0>        -0.0620
     11 C8         -4.9971    1.4200    3.9072 C.ar      1 <0>        -0.1179
     12 C9         -5.2519    2.7778    3.9728 C.ar      1 <0>        -0.0312
     13 C10        -4.6820    3.6364    3.0510 C.ar      1 <0>        -0.6177
     14 C11        -3.8506    3.1409    2.0654 C.ar      1 <0>        -0.0458
     15 S1         -5.0101    5.3653    3.1386 S.o2      1 <0>         2.6268
     16 O2         -4.7950    5.8861    1.8341 O.2       1 <0>        -0.9849
     17 O3         -6.2476    5.5097    3.8220 O.2       1 <0>        -0.9756
     18 N2         -3.8505    6.0351    4.1127 N.2       1 <0>        -0.9834
     19 C12        -3.8587    7.3068    4.3474 C.2       1 <0>         0.5346
     20 N3         -4.7759    8.1958    3.8531 N.pl3     1 <0>        -0.7566
     21 C13        -4.7745    9.4079    4.6880 C.3       1 <0>         0.0986
     22 C14        -3.3259    9.5125    5.2145 C.3       1 <0>        -0.1387
     23 C15        -2.8607    8.0408    5.2156 C.3       1 <0>        -0.0952
     24 N4         -2.6967   -1.6654   -1.2214 N.am      1 <0>        -0.6098
     25 C16        -3.0605   -1.7085   -2.6426 C.3       1 <0>         0.1028
     26 C17        -3.2747   -3.2033   -2.9681 C.3       1 <0>        -0.1302
     27 C18        -3.6468   -3.7777   -1.5815 C.3       1 <0>        -0.1554
     28 C19        -3.0146   -2.8147   -0.6010 C.2       1 <0>         0.5274
     29 O4         -2.8245   -3.0451    0.5745 O.2       1 <0>        -0.5126
     30 H2          1.0751   -1.9321   -0.4154 H         1 <0>         0.0624
     31 H3         -0.3634   -2.6050   -1.2192 H         1 <0>         0.0557
     32 H4          0.2947   -1.0354   -1.7402 H         1 <0>         0.0564
     33 H5         -1.0243   -1.6596    0.9392 H         1 <0>         0.0962
     34 H6          0.1616    0.9490   -0.1113 H         1 <0>         0.0622
     35 H7         -0.6641    0.7222    1.4492 H         1 <0>         0.0614
     36 H8          0.8967   -0.0770    1.1438 H         1 <0>         0.0714
     37 H9         -2.0055    1.7942    0.6814 H         1 <0>         0.4134
     38 H10        -3.9743   -0.1429    2.8691 H         1 <0>         0.1451
     39 H11        -5.4441    0.7518    4.6284 H         1 <0>         0.1397
     40 H12        -5.8976    3.1681    4.7454 H         1 <0>         0.1422
     41 H13        -3.4016    3.8128    1.3488 H         1 <0>         0.1422
     42 H14        -5.0258   10.2830    4.0888 H         1 <0>         0.0939
     43 H15        -5.4738    9.2997    5.5171 H         1 <0>         0.0836
     44 H16        -2.7134   10.1151    4.5438 H         1 <0>         0.0895
     45 H17        -3.3104    9.9206    6.2251 H         1 <0>         0.0995
     46 H18        -2.8738    7.6391    6.2288 H         1 <0>         0.1164
     47 H19        -1.8602    7.9626    4.7902 H         1 <0>         0.1174
     48 H20        -3.9806   -1.1496   -2.8136 H         1 <0>         0.0719
     49 H21        -2.2528   -1.3019   -3.2512 H         1 <0>         0.0811
     50 H22        -4.0922   -3.3350   -3.6769 H         1 <0>         0.0925
     51 H23        -2.3573   -3.6560   -3.3444 H         1 <0>         0.0841
     52 H24        -4.7293   -3.8003   -1.4558 H         1 <0>         0.1054
     53 H25        -3.2264   -4.7756   -1.4566 H         1 <0>         0.1021
     54 H26        -5.3376    8.0495    3.0760 H         1 <0>         0.4167
@<TRIPOS>BOND
     1    1    2 1
     2    1   30 1
     3    1   31 1
     4    1   32 1
     5    2    3 1
     6    2    4 1
     7    2   33 1
     8    3   34 1
     9    3   35 1
    10    3   36 1
    11    4    5 1
    12    4    6 1
    13    4   24 1
    14    6    7 2
    15    6    8 am
    16    8    9 1
    17    8   37 1
    18    9   14 ar
    19    9   10 ar
    20   10   11 ar
    21   10   38 1
    22   11   12 ar
    23   11   39 1
    24   12   13 ar
    25   12   40 1
    26   13   14 ar
    27   13   15 1
    28   14   41 1
    29   15   16 2
    30   15   17 2
    31   15   18 1
    32   18   19 2
    33   19   23 1
    34   19   20 1
    35   20   21 1
    36   20   54 1
    37   21   22 1
    38   21   42 1
    39   21   43 1
    40   22   23 1
    41   22   44 1
    42   22   45 1
    43   23   46 1
    44   23   47 1
    45   24   28 am
    46   24   25 1
    47   25   26 1
    48   25   48 1
    49   25   49 1
    50   26   27 1
    51   26   50 1
    52   26   51 1
    53   27   28 1
    54   27   52 1
    55   27   53 1
    56   28   29 2
@<TRIPOS>MOLECULE
ZINC09707413
   48    51     0     0     0
SMALL
USER_CHARGES
N-[4-(2-methyl-4-oxo-quinazolin-3-yl)phenyl]-2-(trifluoromethyl)benzenesulfonamide
@<TRIPOS>ATOM
      1 C1          1.3161   -2.7590    4.0814 C.3       1 <0>        -0.1141
      2 C2          1.1020   -1.7586    2.9749 C.2       1 <0>         0.4002
      3 N1          1.2766   -0.4994    3.2401 N.2       1 <0>        -0.5152
      4 C3          1.1017    0.4573    2.2948 C.ar      1 <0>         0.1523
      5 C4          1.2898    1.8115    2.5796 C.ar      1 <0>        -0.1101
      6 C5          1.1017    2.7490    1.5893 C.ar      1 <0>        -0.0708
      7 C6          0.7264    2.3655    0.3082 C.ar      1 <0>        -0.1375
      8 C7          0.5347    1.0360    0.0027 C.ar      1 <0>        -0.0396
      9 C8          0.7200    0.0708    0.9907 C.ar      1 <0>        -0.1980
     10 C9          0.5308   -1.3621    0.7228 C.2       1 <0>         0.5491
     11 O1          0.2024   -1.7613   -0.3794 O.2       1 <0>        -0.4936
     12 N2          0.7352   -2.2203    1.7492 N.am      1 <0>        -0.5005
     13 C10         0.5678   -3.5975    1.5472 C.ar      1 <0>         0.0977
     14 C11        -0.6994   -4.1162    1.3155 C.ar      1 <0>        -0.0678
     15 C12        -0.8637   -5.4713    1.1109 C.ar      1 <0>        -0.1393
     16 C13         0.2371   -6.3179    1.1485 C.ar      1 <0>         0.1582
     17 C14         1.5039   -5.7995    1.3859 C.ar      1 <0>        -0.1125
     18 C15         1.6685   -4.4434    1.5843 C.ar      1 <0>        -0.0888
     19 N3          0.0701   -7.6913    0.9479 N.pl3     1 <0>        -1.0488
     20 S1         -1.1651   -8.4943    1.7041 S.o2      1 <0>         2.6731
     21 O2         -2.3501   -7.7546    1.4434 O.2       1 <0>        -0.9361
     22 O3         -1.0310   -9.8656    1.3563 O.2       1 <0>        -0.9250
     23 C16        -0.8737   -8.3838    3.4383 C.ar      1 <0>        -0.6368
     24 C17        -1.7424   -7.6679    4.2410 C.ar      1 <0>        -0.0161
     25 C18        -1.5165   -7.5853    5.6021 C.ar      1 <0>        -0.1052
     26 C19        -0.4160   -8.2097    6.1593 C.ar      1 <0>        -0.0605
     27 C20         0.4553   -8.9210    5.3561 C.ar      1 <0>        -0.0880
     28 C21         0.2264   -9.0080    3.9954 C.ar      1 <0>        -0.0871
     29 C22         1.1768   -9.7831    3.1195 C.3       1 <0>         0.4807
     30 F1          2.2687  -10.2122    3.8816 F         1 <0>        -0.1666
     31 F2          0.5165  -10.8941    2.5839 F         1 <0>        -0.1391
     32 F3          1.6274   -8.9626    2.0799 F         1 <0>        -0.1741
     33 H1          1.6335   -2.2388    4.9851 H         1 <0>         0.1052
     34 H2          0.3844   -3.2902    4.2762 H         1 <0>         0.0932
     35 H3          2.0851   -3.4716    3.7832 H         1 <0>         0.0931
     36 H4          1.5773    2.1221    3.5732 H         1 <0>         0.1411
     37 H5          1.2473    3.7958    1.8115 H         1 <0>         0.1363
     38 H6          0.5834    3.1162   -0.4549 H         1 <0>         0.1353
     39 H7          0.2433    0.7438   -0.9954 H         1 <0>         0.1388
     40 H8         -1.5558   -3.4587    1.2910 H         1 <0>         0.1355
     41 H9         -1.8486   -5.8741    0.9263 H         1 <0>         0.1670
     42 H10         2.3599   -6.4573    1.4148 H         1 <0>         0.1423
     43 H11         2.6533   -4.0404    1.7689 H         1 <0>         0.1364
     44 H12         0.6777   -8.1739    0.3658 H         1 <0>         0.4342
     45 H13        -2.5997   -7.1765    3.8051 H         1 <0>         0.1571
     46 H14        -2.1972   -7.0292    6.2297 H         1 <0>         0.1471
     47 H15        -0.2371   -8.1414    7.2222 H         1 <0>         0.1474
     48 H16         1.3152   -9.4084    5.7913 H         1 <0>         0.1503
@<TRIPOS>BOND
     1    1    2 1
     2    1   33 1
     3    1   34 1
     4    1   35 1
     5    2   12 1
     6    2    3 2
     7    3    4 1
     8    4    9 ar
     9    4    5 ar
    10    5    6 ar
    11    5   36 1
    12    6    7 ar
    13    6   37 1
    14    7    8 ar
    15    7   38 1
    16    8    9 ar
    17    8   39 1
    18    9   10 1
    19   10   11 2
    20   10   12 am
    21   12   13 1
    22   13   18 ar
    23   13   14 ar
    24   14   15 ar
    25   14   40 1
    26   15   16 ar
    27   15   41 1
    28   16   17 ar
    29   16   19 1
    30   17   18 ar
    31   17   42 1
    32   18   43 1
    33   19   20 1
    34   19   44 1
    35   20   21 2
    36   20   22 2
    37   20   23 1
    38   23   28 ar
    39   23   24 ar
    40   24   25 ar
    41   24   45 1
    42   25   26 ar
    43   25   46 1
    44   26   27 ar
    45   26   47 1
    46   27   28 ar
    47   27   48 1
    48   28   29 1
    49   29   30 1
    50   29   31 1
    51   29   32 1
@<TRIPOS>MOLECULE
ZINC16598074
   48    50     0     0     0
SMALL
USER_CHARGES
1-(2,5-dichlorophenyl)sulfonyl-N-(4-methoxyphenyl)piperidine-4-carboxamide
@<TRIPOS>ATOM
      1 C1         -4.7445   -1.4404    3.7213 C.3       1 <0>         0.0264
      2 O1         -4.0240   -2.0219    2.6328 O.3       1 <0>        -0.3174
      3 C2         -2.9335   -1.3458    2.1830 C.ar      1 <0>         0.1145
      4 C3         -2.1886   -1.8543    1.1290 C.ar      1 <0>        -0.1319
      5 C4         -1.0815   -1.1676    0.6710 C.ar      1 <0>        -0.1041
      6 C5         -0.7138    0.0318    1.2660 C.ar      1 <0>         0.1066
      7 C6         -1.4562    0.5371    2.3250 C.ar      1 <0>        -0.0790
      8 C7         -2.5667   -0.1475    2.7779 C.ar      1 <0>        -0.1884
      9 N1          0.4094    0.7291    0.8018 N.am      1 <0>        -0.6713
     10 C8          0.4293    2.0762    0.8393 C.2       1 <0>         0.5173
     11 O2         -0.5605    2.6880    1.1816 O.2       1 <0>        -0.5168
     12 C9          1.6793    2.8224    0.4500 C.3       1 <0>        -0.1024
     13 C10         2.8283    2.4084    1.3722 C.3       1 <0>        -0.1333
     14 C11         4.1052    3.1429    0.9517 C.3       1 <0>         0.1162
     15 N2          3.8361    4.5872    0.9341 N.pl3     1 <0>        -0.9908
     16 C12         2.6969    5.0839    0.1504 C.3       1 <0>         0.1202
     17 C13         1.4357    4.3277    0.5799 C.3       1 <0>        -0.1167
     18 S1          4.7987    5.6352    1.7809 S.o2      1 <0>         2.6875
     19 O3          5.9941    4.9310    2.0879 O.2       1 <0>        -0.9332
     20 O4          4.7996    6.8593    1.0591 O.2       1 <0>        -0.9433
     21 C14         3.9951    5.9563    3.3158 C.ar      1 <0>        -0.6646
     22 C15         3.4946    7.2166    3.5835 C.ar      1 <0>        -0.0015
     23 C16         2.8591    7.4673    4.7863 C.ar      1 <0>        -0.0524
     24 C17         2.7336    6.4591    5.7258 C.ar      1 <0>        -0.0425
     25 C18         3.2389    5.2007    5.4605 C.ar      1 <0>        -0.1137
     26 C19         3.8700    4.9486    4.2551 C.ar      1 <0>         0.0548
     27 Cl1         4.5044    3.3674    3.9215 Cl        1 <0>        -0.0298
     28 Cl2         2.2247    9.0484    5.1199 Cl        1 <0>        -0.0431
     29 H1         -5.1100   -0.4556    3.4302 H         1 <0>         0.0561
     30 H2         -5.5887   -2.0792    3.9808 H         1 <0>         0.1014
     31 H3         -4.0843   -1.3427    4.5831 H         1 <0>         0.0557
     32 H4         -2.4747   -2.7872    0.6663 H         1 <0>         0.1359
     33 H5         -0.5020   -1.5632   -0.1500 H         1 <0>         0.1334
     34 H6         -1.1681    1.4677    2.7911 H         1 <0>         0.1357
     35 H7         -3.1468    0.2477    3.5987 H         1 <0>         0.1313
     36 H8          1.1727    0.2423    0.4535 H         1 <0>         0.4106
     37 H9          1.9380    2.5841   -0.5817 H         1 <0>         0.1072
     38 H10         2.5809    2.6690    2.4013 H         1 <0>         0.0787
     39 H11         2.9858    1.3325    1.2967 H         1 <0>         0.0838
     40 H12         4.4045    2.8148   -0.0437 H         1 <0>         0.0851
     41 H13         4.9017    2.9283    1.6642 H         1 <0>         0.1012
     42 H14         2.8813    4.9141   -0.9104 H         1 <0>         0.0852
     43 H15         2.5640    6.1501    0.3342 H         1 <0>         0.0944
     44 H16         0.6020    4.6179   -0.0596 H         1 <0>         0.0892
     45 H17         1.2014    4.5703    1.6164 H         1 <0>         0.0759
     46 H18         3.5962    8.0046    2.8519 H         1 <0>         0.1635
     47 H19         2.2410    6.6559    6.6666 H         1 <0>         0.1540
     48 H20         3.1416    4.4140    6.1940 H         1 <0>         0.1545
@<TRIPOS>BOND
     1    1    2 1
     2    1   29 1
     3    1   30 1
     4    1   31 1
     5    2    3 1
     6    3    8 ar
     7    3    4 ar
     8    4    5 ar
     9    4   32 1
    10    5    6 ar
    11    5   33 1
    12    6    7 ar
    13    6    9 1
    14    7    8 ar
    15    7   34 1
    16    8   35 1
    17    9   10 am
    18    9   36 1
    19   10   11 2
    20   10   12 1
    21   12   17 1
    22   12   13 1
    23   12   37 1
    24   13   14 1
    25   13   38 1
    26   13   39 1
    27   14   15 1
    28   14   40 1
    29   14   41 1
    30   15   16 1
    31   15   18 1
    32   16   17 1
    33   16   42 1
    34   16   43 1
    35   17   44 1
    36   17   45 1
    37   18   19 2
    38   18   20 2
    39   18   21 1
    40   21   26 ar
    41   21   22 ar
    42   22   23 ar
    43   22   46 1
    44   23   24 ar
    45   23   28 1
    46   24   25 ar
    47   24   47 1
    48   25   26 ar
    49   25   48 1
    50   26   27 1
@<TRIPOS>MOLECULE
ZINC22854474
   51    54     0     0     0
SMALL
USER_CHARGES
5-[(R)-(2,4-dichlorophenyl)-(4-ethylpiperazin-1-yl)methyl]-2-ethyl-thiazolo[2,3-e][1,2,4]triazol-6-ol
@<TRIPOS>ATOM
      1 C1          5.4271    2.1889    7.3218 C.3       1 <0>        -0.1478
      2 C2          6.0446    3.3273    6.5071 C.3       1 <0>        -0.0281
      3 C3          5.2226    3.5598    5.2656 C.2       1 <0>         0.2370
      4 N1          4.1909    4.3957    5.1697 N.2       1 <0>        -0.4991
      5 C4          3.7101    4.3502    3.9572 C.2       1 <0>         0.2535
      6 N2          4.4295    3.4655    3.2135 N.pl3     1 <0>        -0.3656
      7 N3          5.4097    2.9730    4.1141 N.2       1 <0>        -0.2783
      8 C5          4.0514    3.2903    1.9040 C.2       1 <0>         0.4829
      9 C6          3.0221    3.9767    1.3939 C.2       1 <0>        -0.4919
     10 S1          2.4981    4.9436    2.8016 S.3       1 <0>         0.0712
     11 C7          2.4509    3.9389   -0.0001 C.3       1 <0>         0.2473
     12 H1          3.1673    3.4698   -0.6906 H         1 <0>         0.1513
     13 C8          1.1565    3.1673    0.0081 C.ar      1 <0>        -0.0914
     14 C9         -0.0501    3.8419    0.0237 C.ar      1 <0>        -0.1186
     15 C10        -1.2375    3.1349    0.0317 C.ar      1 <0>        -0.0945
     16 C11        -1.2195    1.7513    0.0174 C.ar      1 <0>        -0.0177
     17 C12        -0.0126    1.0758    0.0080 C.ar      1 <0>        -0.0939
     18 C13         1.1759    1.7841    0.0004 C.ar      1 <0>        -0.0045
     19 Cl1         2.6912    0.9372   -0.0181 Cl        1 <0>         0.0036
     20 Cl2        -2.7113    0.8635    0.0196 Cl        1 <0>        -0.0467
     21 N4          2.2007    5.3101   -0.4641 N.4       1 <0>        -0.3983
     22 C14         1.5591    5.3099   -1.7862 C.3       1 <0>        -0.0164
     23 C15         1.2438    6.7500   -2.1975 C.3       1 <0>         0.0267
     24 N5          2.4867    7.5339   -2.2185 N.3       1 <0>        -0.5392
     25 C16         3.1283    7.5341   -0.8964 C.3       1 <0>         0.0290
     26 C17         3.4435    6.0940   -0.4851 C.3       1 <0>         0.0081
     27 C18         2.2364    8.9051   -2.6824 C.3       1 <0>         0.0496
     28 C19         1.8034    8.8761   -4.1496 C.3       1 <0>        -0.1553
     29 O1          4.7323    2.4136    1.1177 O.3       1 <0>        -0.6248
     30 H2          6.0271    2.0192    8.2280 H         1 <0>         0.0702
     31 H3          5.4108    1.2711    6.7156 H         1 <0>         0.0581
     32 H4          4.3995    2.4580    7.6075 H         1 <0>         0.0605
     33 H5          6.0609    4.2451    7.1133 H         1 <0>         0.0955
     34 H6          7.0722    3.0583    6.2214 H         1 <0>         0.0912
     35 H7         -0.0647    4.9218    0.0301 H         1 <0>         0.1286
     36 H8         -2.1798    3.6625    0.0443 H         1 <0>         0.1464
     37 H9          0.0021   -0.0041    0.0020 H         1 <0>         0.1503
     38 H10         2.2386    4.8574   -2.5234 H         1 <0>         0.1365
     39 H11         0.6268    4.7279   -1.7412 H         1 <0>         0.1382
     40 H12         0.7896    6.7541   -3.1993 H         1 <0>         0.1220
     41 H13         0.5422    7.1925   -1.4750 H         1 <0>         0.0570
     42 H14         4.0607    8.1160   -0.9414 H         1 <0>         0.1205
     43 H15         2.4489    7.9867   -0.1592 H         1 <0>         0.0591
     44 H16         3.8972    6.0888    0.5169 H         1 <0>         0.1433
     45 H17         4.1446    5.6505   -1.2074 H         1 <0>         0.1324
     46 H18         1.4400    9.3584   -2.0739 H         1 <0>         0.0434
     47 H19         3.1567    9.4994   -2.5834 H         1 <0>         0.0863
     48 H20         1.6160    9.9029   -4.4969 H         1 <0>         0.0670
     49 H21         0.8831    8.2818   -4.2486 H         1 <0>         0.0558
     50 H22         2.5999    8.4228   -4.7580 H         1 <0>         0.0681
     51 H23         1.5108    5.7862    0.2482 H         1 <0>         0.4209
@<TRIPOS>BOND
     1    1    2 1
     2    1   30 1
     3    1   31 1
     4    1   32 1
     5    2    3 1
     6    2   33 1
     7    2   34 1
     8    3    7 2
     9    3    4 1
    10    4    5 2
    11    5   10 1
    12    5    6 1
    13    6    7 1
    14    6    8 1
    15    8    9 2
    16    8   29 1
    17    9   10 1
    18    9   11 1
    19   11   12 1
    20   11   13 1
    21   11   21 1
    22   13   18 ar
    23   13   14 ar
    24   14   15 ar
    25   14   35 1
    26   15   16 ar
    27   15   36 1
    28   16   17 ar
    29   16   20 1
    30   17   18 ar
    31   17   37 1
    32   18   19 1
    33   21   26 1
    34   21   22 1
    35   21   51 1
    36   22   23 1
    37   22   38 1
    38   22   39 1
    39   23   24 1
    40   23   40 1
    41   23   41 1
    42   24   25 1
    43   24   27 1
    44   25   26 1
    45   25   42 1
    46   25   43 1
    47   26   44 1
    48   26   45 1
    49   27   28 1
    50   27   46 1
    51   27   47 1
    52   28   48 1
    53   28   49 1
    54   28   50 1
@<TRIPOS>MOLECULE
ZINC38834742
   54    56     0     0     0
SMALL
USER_CHARGES

@<TRIPOS>ATOM
      1 C1         -0.0415    1.5437   -0.0162 C.3       1 <0>        -0.1432
      2 C2         -0.0146    0.0139   -0.0155 C.3       1 <0>        -0.0274
      3 C3          0.7254   -0.4826    1.2282 C.3       1 <0>        -0.1410
      4 C4         -1.4479   -0.5214   -0.0038 C.3       1 <0>        -0.1463
      5 C5          0.6947   -0.4766   -1.2513 C.ar      1 <0>        -0.0610
      6 C6          0.0273   -1.2790   -2.1581 C.ar      1 <0>        -0.1050
      7 C7          0.6718   -1.7336   -3.2935 C.ar      1 <0>        -0.1087
      8 C8          1.9933   -1.3853   -3.5283 C.ar      1 <0>         0.0931
      9 C9          2.6625   -0.5751   -2.6150 C.ar      1 <0>         0.0982
     10 C10         2.0107   -0.1191   -1.4802 C.ar      1 <0>        -0.1290
     11 N1          3.9981   -0.2136   -2.8525 N.pl3     1 <0>        -0.9394
     12 C11         4.7333   -0.9539   -3.8922 C.3       1 <0>         0.0801
     13 C12         3.7862   -1.1403   -5.0863 C.3       1 <0>         0.0706
     14 H1          3.4993   -0.1654   -5.4806 H         1 <0>         0.1122
     15 O1          2.6207   -1.8405   -4.6451 O.3       1 <0>        -0.2796
     16 C13         4.4800   -1.9359   -6.1618 C.2       1 <0>         0.5245
     17 O2          4.0686   -3.0364   -6.4628 O.2       1 <0>        -0.4792
     18 N2          5.5577   -1.4245   -6.7891 N.am      1 <0>        -0.6681
     19 C14         6.2599   -2.2002   -7.7182 C.ar      1 <0>         0.1416
     20 C15         7.6398   -2.0816   -7.8224 C.ar      1 <0>        -0.1079
     21 C16         8.3299   -2.8485   -8.7403 C.ar      1 <0>        -0.0992
     22 C17         7.6484   -3.7336   -9.5556 C.ar      1 <0>        -0.0832
     23 C18         6.2747   -3.8537   -9.4547 C.ar      1 <0>        -0.1638
     24 C19         5.5794   -3.0943   -8.5339 C.ar      1 <0>        -0.0717
     25 C20         5.5361   -4.8191  -10.3455 C.3       1 <0>         0.5091
     26 F1          6.4475   -5.4727  -11.1817 F         1 <0>        -0.1758
     27 F2          4.8669   -5.7619   -9.5577 F         1 <0>        -0.1722
     28 F3          4.6082   -4.1189  -11.1239 F         1 <0>        -0.1752
     29 S1          4.7218    1.0035   -1.9938 S.o2      1 <0>         2.6013
     30 O3          5.7449    1.4926   -2.8500 O.2       1 <0>        -0.9426
     31 O4          3.6523    1.8465   -1.5880 O.2       1 <0>        -0.9297
     32 C21         5.4537    0.1841   -0.5503 C.3       1 <0>        -0.6694
     33 H2          0.9795    1.9250   -0.0245 H         1 <0>         0.0645
     34 H3         -0.5687    1.8973   -0.9022 H         1 <0>         0.0575
     35 H4         -0.5546    1.8984    0.8777 H         1 <0>         0.0589
     36 H5          0.2123   -0.1278    2.1221 H         1 <0>         0.0617
     37 H6          0.7445   -1.5724    1.2288 H         1 <0>         0.0580
     38 H7          1.7465   -0.1012    1.2199 H         1 <0>         0.0546
     39 H8         -1.9751   -0.1677   -0.8898 H         1 <0>         0.0607
     40 H9         -1.4287   -1.6112   -0.0032 H         1 <0>         0.0601
     41 H10        -1.9609   -0.1666    0.8901 H         1 <0>         0.0605
     42 H11        -1.0020   -1.5522   -1.9785 H         1 <0>         0.1395
     43 H12         0.1458   -2.3608   -3.9979 H         1 <0>         0.1393
     44 H13         2.5308    0.5112   -0.7741 H         1 <0>         0.1471
     45 H14         5.6103   -0.3851   -4.2010 H         1 <0>         0.1237
     46 H15         5.0390   -1.9267   -3.5073 H         1 <0>         0.1005
     47 H16         5.8465   -0.5187   -6.5966 H         1 <0>         0.4187
     48 H17         8.1725   -1.3900   -7.1864 H         1 <0>         0.1396
     49 H18         9.4029   -2.7567   -8.8218 H         1 <0>         0.1429
     50 H19         8.1904   -4.3320  -10.2730 H         1 <0>         0.1424
     51 H20         4.5069   -3.1923   -8.4520 H         1 <0>         0.1511
     52 H21         6.2721   -0.4591   -0.8738 H         1 <0>         0.1333
     53 H22         5.8342    0.9366    0.1404 H         1 <0>         0.1386
     54 H23         4.6946   -0.4174   -0.0503 H         1 <0>         0.1342
@<TRIPOS>BOND
     1    1    2 1
     2    1   33 1
     3    1   34 1
     4    1   35 1
     5    2    3 1
     6    2    4 1
     7    2    5 1
     8    3   36 1
     9    3   37 1
    10    3   38 1
    11    4   39 1
    12    4   40 1
    13    4   41 1
    14    5   10 ar
    15    5    6 ar
    16    6    7 ar
    17    6   42 1
    18    7    8 ar
    19    7   43 1
    20    8   15 1
    21    8    9 ar
    22    9   10 ar
    23    9   11 1
    24   10   44 1
    25   11   12 1
    26   11   29 1
    27   12   13 1
    28   12   45 1
    29   12   46 1
    30   13   14 1
    31   13   15 1
    32   13   16 1
    33   16   17 2
    34   16   18 am
    35   18   19 1
    36   18   47 1
    37   19   24 ar
    38   19   20 ar
    39   20   21 ar
    40   20   48 1
    41   21   22 ar
    42   21   49 1
    43   22   23 ar
    44   22   50 1
    45   23   24 ar
    46   23   25 1
    47   24   51 1
    48   25   26 1
    49   25   27 1
    50   25   28 1
    51   29   30 2
    52   29   31 2
    53   29   32 1
    54   32   52 1
    55   32   53 1
    56   32   54 1
@<TRIPOS>MOLECULE
ZINC20496683
   47    49     0     0     0
SMALL
USER_CHARGES

@<TRIPOS>ATOM
      1 C1         -0.7102    1.3629   -0.4528 C.3       1 <0>         0.0257
      2 O1         -0.4704   -0.0382   -0.3070 O.3       1 <0>        -0.3034
      3 C2          0.3595   -0.6207   -1.2146 C.ar      1 <0>         0.1127
      4 C3          0.9310    0.1422   -2.2152 C.ar      1 <0>        -0.1959
      5 C4          1.7829   -0.4557   -3.1468 C.ar      1 <0>         0.0697
      6 C5          2.0539   -1.8296   -3.0613 C.ar      1 <0>         0.1956
      7 C6          1.4755   -2.5851   -2.0539 C.ar      1 <0>        -0.1690
      8 C7          0.6355   -1.9837   -1.1294 C.ar      1 <0>         0.1048
      9 O2          0.0746   -2.7278   -0.1394 O.3       1 <0>        -0.3034
     10 C8          0.3996   -4.1190   -0.1099 C.3       1 <0>         0.0261
     11 N1          2.9045   -2.4346   -3.9897 N.pl3     1 <0>        -0.6648
     12 C9          4.3523   -2.5268   -3.7430 C.3       1 <0>         0.1146
     13 C10         4.7886   -3.9798   -3.9631 C.3       1 <0>         0.0476
     14 O3          4.3339   -4.4188   -5.2454 O.3       1 <0>        -0.3794
     15 C11         2.9117   -4.4289   -5.3901 C.3       1 <0>         0.0454
     16 C12         2.3784   -3.0040   -5.2405 C.3       1 <0>         0.1191
     17 N2          2.3501    0.2951   -4.1387 N.2       1 <0>        -0.4182
     18 C13         2.9243    1.4295   -3.8502 C.2       1 <0>         0.1812
     19 C14         3.4278    2.2939   -4.9282 C.ar      1 <0>        -0.0831
     20 C15         4.0496    3.5090   -4.6231 C.ar      1 <0>        -0.0521
     21 C16         4.5199    4.3144   -5.6389 C.ar      1 <0>        -0.0484
     22 C17         4.3787    3.9253   -6.9618 C.ar      1 <0>        -0.0510
     23 C18         3.7661    2.7269   -7.2768 C.ar      1 <0>        -0.1222
     24 C19         3.2925    1.9018   -6.2682 C.ar      1 <0>         0.1904
     25 O4          2.6953    0.7221   -6.5764 O.3       1 <0>        -0.4524
     26 Br1         3.5801    2.2084   -9.0858 Br        1 <0>        -0.0169
     27 Cl1         5.2915    5.8225   -5.2593 Cl        1 <0>        -0.0486
     28 H1          0.2335    1.9030   -0.3756 H         1 <0>         0.0542
     29 H2         -1.1602    1.5551   -1.4268 H         1 <0>         0.0546
     30 H3         -1.3867    1.6995    0.3328 H         1 <0>         0.1035
     31 H4          0.7190    1.1994   -2.2770 H         1 <0>         0.1374
     32 H5          1.6825   -3.6429   -1.9864 H         1 <0>         0.1401
     33 H6          1.4766   -4.2381    0.0086 H         1 <0>         0.0549
     34 H7         -0.1127   -4.5942    0.7267 H         1 <0>         0.1028
     35 H8          0.0829   -4.5860   -1.0425 H         1 <0>         0.0552
     36 H9          4.8849   -1.8747   -4.4352 H         1 <0>         0.0591
     37 H10         4.5695   -2.2297   -2.7170 H         1 <0>         0.0717
     38 H11         5.8759   -4.0438   -3.9209 H         1 <0>         0.0980
     39 H12         4.3557   -4.6114   -3.1874 H         1 <0>         0.0497
     40 H13         2.6486   -4.8160   -6.3745 H         1 <0>         0.0991
     41 H14         2.4719   -5.0622   -4.6196 H         1 <0>         0.0480
     42 H15         1.2891   -3.0226   -5.2057 H         1 <0>         0.0740
     43 H16         2.7089   -2.4007   -6.0860 H         1 <0>         0.0666
     44 H17         3.0301    1.7344   -2.8196 H         1 <0>         0.1122
     45 H18         4.1609    3.8161   -3.5937 H         1 <0>         0.1495
     46 H19         4.7492    4.5625   -7.7512 H         1 <0>         0.1497
     47 H20         1.7392    0.7872   -6.7056 H         1 <0>         0.3957
@<TRIPOS>BOND
     1    1    2 1
     2    1   28 1
     3    1   29 1
     4    1   30 1
     5    2    3 1
     6    3    8 ar
     7    3    4 ar
     8    4    5 ar
     9    4   31 1
    10    5    6 ar
    11    5   17 1
    12    6    7 ar
    13    6   11 1
    14    7    8 ar
    15    7   32 1
    16    8    9 1
    17    9   10 1
    18   10   33 1
    19   10   34 1
    20   10   35 1
    21   11   16 1
    22   11   12 1
    23   12   13 1
    24   12   36 1
    25   12   37 1
    26   13   14 1
    27   13   38 1
    28   13   39 1
    29   14   15 1
    30   15   16 1
    31   15   40 1
    32   15   41 1
    33   16   42 1
    34   16   43 1
    35   17   18 2
    36   18   19 1
    37   18   44 1
    38   19   24 ar
    39   19   20 ar
    40   20   21 ar
    41   20   45 1
    42   21   22 ar
    43   21   27 1
    44   22   23 ar
    45   22   46 1
    46   23   24 ar
    47   23   26 1
    48   24   25 1
    49   25   47 1
@<TRIPOS>MOLECULE
ZINC13182810
   62    64     0     0     0
SMALL
USER_CHARGES
2-[(1R)-2-[2-(5-isopropyl-2-methyl-phenoxy)acetyl]-6,7-dimethoxy-3,4-dihydro-1H-isoquinolin-1-yl]acetic acid
@<TRIPOS>ATOM
      1 C1          0.2985    1.7142   -0.0222 C.3       1 <0>        -0.1089
      2 C2          0.3343    0.2081    0.0119 C.ar      1 <0>        -0.1163
      3 C3          0.4123   -0.4545    1.2218 C.ar      1 <0>        -0.0819
      4 C4          0.4443   -1.8362    1.2538 C.ar      1 <0>        -0.1548
      5 C5          0.3987   -2.5587    0.0756 C.ar      1 <0>        -0.0453
      6 C6          0.3216   -1.9010   -1.1366 C.ar      1 <0>        -0.2063
      7 C7          0.2832   -0.5144   -1.1711 C.ar      1 <0>         0.1385
      8 O1          0.2008    0.1348   -2.3621 O.3       1 <0>        -0.2795
      9 C8          0.1520   -0.6735   -3.5396 C.3       1 <0>         0.0484
     10 C9          0.0629    0.2137   -4.7545 C.2       1 <0>         0.5390
     11 O2          0.0431    1.4194   -4.6249 O.2       1 <0>        -0.4937
     12 N1          0.0051   -0.3328   -5.9852 N.am      1 <0>        -0.5896
     13 C10         0.1584   -1.7831   -6.1870 C.3       1 <0>         0.1109
     14 C11        -1.1655   -2.3164   -6.7466 C.3       1 <0>        -0.0865
     15 C12        -1.6508   -1.4573   -7.8848 C.ar      1 <0>        -0.0506
     16 C13        -2.5797   -2.0123   -8.7577 C.ar      1 <0>        -0.1749
     17 C14        -3.0866   -1.2729   -9.8095 C.ar      1 <0>         0.0903
     18 C15        -2.6627    0.0398   -9.9963 C.ar      1 <0>         0.0973
     19 C16        -1.7346    0.5868   -9.1297 C.ar      1 <0>        -0.1628
     20 C17        -1.2250   -0.1621   -8.0769 C.ar      1 <0>        -0.0438
     21 C18        -0.2070    0.4942   -7.1778 C.3       1 <0>         0.2127
     22 H1          0.7348    0.6035   -7.7155 H         1 <0>         0.0708
     23 C19        -0.7158    1.8742   -6.7565 C.3       1 <0>        -0.1752
     24 C20        -1.9923    1.7205   -5.9704 C.2       1 <0>         0.4868
     25 O3         -2.4073    0.6180   -5.7017 O.co2     1 <0>        -0.6407
     26 O4         -3.1578    0.7792  -11.0247 O.3       1 <0>        -0.3105
     27 C21        -2.6749    2.1181  -11.1525 C.3       1 <0>         0.0256
     28 O5         -3.9953   -1.8248  -10.6575 O.3       1 <0>        -0.3105
     29 C22        -4.3828   -3.1765  -10.4029 C.3       1 <0>         0.0291
     30 C23         0.4337   -4.0648    0.1141 C.3       1 <0>        -0.0569
     31 C24         1.7299   -4.5278    0.7822 C.3       1 <0>        -0.1423
     32 C25        -0.7646   -4.5825    0.9121 C.3       1 <0>        -0.1436
     33 H2          1.3159    2.1006   -0.0839 H         1 <0>         0.0662
     34 H3         -0.2689    2.0446   -0.8922 H         1 <0>         0.0783
     35 H4         -0.1773    2.0870    0.8849 H         1 <0>         0.0618
     36 H5          0.4480    0.1075    2.1434 H         1 <0>         0.1261
     37 H6          0.5045   -2.3523    2.2006 H         1 <0>         0.1191
     38 H7          0.2865   -2.4657   -2.0566 H         1 <0>         0.1252
     39 H8          1.0539   -1.2826   -3.5998 H         1 <0>         0.0812
     40 H9         -0.7228   -1.3225   -3.4987 H         1 <0>         0.0902
     41 H10         0.9644   -1.9737   -6.8956 H         1 <0>         0.0739
     42 H11         0.3809   -2.2663   -5.2356 H         1 <0>         0.0800
     43 H12        -1.9156   -2.3208   -5.9557 H         1 <0>         0.0854
     44 H13        -1.0164   -3.3350   -7.1047 H         1 <0>         0.0745
     45 H14        -2.9079   -3.0310   -8.6128 H         1 <0>         0.1285
     46 H15        -1.4030    1.6046   -9.2728 H         1 <0>         0.1335
     47 H16         0.0352    2.3650   -6.1375 H         1 <0>         0.1094
     48 H17        -0.9061    2.4778   -7.6440 H         1 <0>         0.0547
     49 H18        -2.9128    2.6780  -10.2481 H         1 <0>         0.0582
     50 H19        -1.5946    2.1024  -11.2966 H         1 <0>         0.0518
     51 H20        -3.1490    2.5950  -12.0104 H         1 <0>         0.0961
     52 H21        -3.5057   -3.8215  -10.4534 H         1 <0>         0.0505
     53 H22        -4.8283   -3.2460   -9.4106 H         1 <0>         0.0524
     54 H23        -5.1101   -3.4929  -11.1507 H         1 <0>         0.0944
     55 H24         0.3893   -4.4554   -0.9026 H         1 <0>         0.0759
     56 H25         1.7743   -4.1373    1.7988 H         1 <0>         0.0568
     57 H26         1.7552   -5.6172    0.8101 H         1 <0>         0.0560
     58 H27         2.5836   -4.1590    0.2137 H         1 <0>         0.0554
     59 H28        -0.7393   -5.6718    0.9400 H         1 <0>         0.0562
     60 H29        -0.7202   -4.1919    1.9288 H         1 <0>         0.0569
     61 H30        -1.6880   -4.2526    0.4362 H         1 <0>         0.0571
     62 O6         -2.6682    2.8084   -5.5687 O.co2     1 <0>        -0.7804
@<TRIPOS>BOND
     1    1    2 1
     2    1   33 1
     3    1   34 1
     4    1   35 1
     5    2    7 ar
     6    2    3 ar
     7    3    4 ar
     8    3   36 1
     9    4    5 ar
    10    4   37 1
    11    5    6 ar
    12    5   30 1
    13    6    7 ar
    14    6   38 1
    15    7    8 1
    16    8    9 1
    17    9   10 1
    18    9   39 1
    19    9   40 1
    20   10   11 2
    21   10   12 am
    22   12   21 1
    23   12   13 1
    24   13   14 1
    25   13   41 1
    26   13   42 1
    27   14   15 1
    28   14   43 1
    29   14   44 1
    30   15   20 ar
    31   15   16 ar
    32   16   17 ar
    33   16   45 1
    34   17   18 ar
    35   17   28 1
    36   18   19 ar
    37   18   26 1
    38   19   20 ar
    39   19   46 1
    40   20   21 1
    41   21   22 1
    42   21   23 1
    43   23   24 1
    44   23   47 1
    45   23   48 1
    46   24   25 2
    47   24   62 1
    48   26   27 1
    49   27   49 1
    50   27   50 1
    51   27   51 1
    52   28   29 1
    53   29   52 1
    54   29   53 1
    55   29   54 1
    56   30   31 1
    57   30   32 1
    58   30   55 1
    59   31   56 1
    60   31   57 1
    61   31   58 1
    62   32   59 1
    63   32   60 1
    64   32   61 1
@<TRIPOS>MOLECULE
ZINC13452977
   64    67     0     0     0
SMALL
USER_CHARGES
3-[3-[(1R)-1-methyl-2-oxo-3-(1,3,3-trimethylindolin-2-ylidene)propyl]sulfanyl-5-(m-tolyl)-1,2,4-triazol-4-yl]propanoic acid
@<TRIPOS>ATOM
      1 C1         -3.7545   -3.5410    7.5561 C.3       1 <0>        -0.1108
      2 C2         -3.7076   -2.5913    6.3869 C.ar      1 <0>        -0.0923
      3 C3         -4.3567   -2.9147    5.2083 C.ar      1 <0>        -0.1081
      4 C4         -4.3186   -2.0485    4.1303 C.ar      1 <0>        -0.1092
      5 C5         -3.6365   -0.8529    4.2259 C.ar      1 <0>        -0.1090
      6 C6         -2.9757   -0.5229    5.4100 C.ar      1 <0>        -0.0112
      7 C7         -3.0182   -1.4014    6.4940 C.ar      1 <0>        -0.0781
      8 C8         -2.2391    0.7544    5.5179 C.2       1 <0>         0.2197
      9 N1         -2.0720    1.4691    6.6062 N.2       1 <0>        -0.2749
     10 N2         -1.3814    2.5195    6.3395 N.2       1 <0>        -0.2953
     11 C9         -1.0605    2.5370    5.0649 C.2       1 <0>         0.1516
     12 N3         -1.5994    1.4182    4.4966 N.pl3     1 <0>        -0.4441
     13 C10        -1.5095    1.0072    3.0933 C.3       1 <0>         0.1144
     14 C11        -2.6035    1.7083    2.2855 C.3       1 <0>        -0.1765
     15 C12        -2.5111    1.2856    0.8420 C.2       1 <0>         0.4704
     16 O1         -1.6577    0.5038    0.4949 O.co2     1 <0>        -0.6359
     17 S1         -0.1142    3.7748    4.2422 S.3       1 <0>         0.0522
     18 C13         0.2228    4.8869    5.6300 C.3       1 <0>        -0.1135
     19 H1          0.6551    4.3734    6.3712 H         1 <0>         0.1055
     20 C14        -1.0905    5.4934    6.1281 C.3       1 <0>        -0.1411
     21 C15         1.1456    5.9892    5.1778 C.2       1 <0>         0.4073
     22 O2          1.1843    6.3066    4.0053 O.2       1 <0>        -0.4876
     23 C16         1.9595    6.6485    6.1097 C.2       1 <0>        -0.3815
     24 C17         2.9031    7.5245    5.6855 C.2       1 <0>         0.2839
     25 C18         3.3440    8.7877    6.3939 C.3       1 <0>        -0.0087
     26 C19         4.4050    9.3686    5.4878 C.ar      1 <0>        -0.1339
     27 C20         5.1851   10.5006    5.5709 C.ar      1 <0>        -0.0639
     28 C21         6.0954   10.7873    4.5688 C.ar      1 <0>        -0.1419
     29 C22         6.2184    9.9350    3.4864 C.ar      1 <0>        -0.0848
     30 C23         5.4391    8.8004    3.4004 C.ar      1 <0>        -0.1368
     31 C24         4.5196    8.5046    4.4061 C.ar      1 <0>         0.1361
     32 N4          3.6388    7.4334    4.5452 N.pl3     1 <0>        -0.4981
     33 C25         3.5174    6.3410    3.5766 C.3       1 <0>         0.0817
     34 C26         2.1707    9.7593    6.5363 C.3       1 <0>        -0.1260
     35 C27         3.9317    8.4548    7.7667 C.3       1 <0>        -0.1293
     36 H2         -4.6174   -3.3072    8.1796 H         1 <0>         0.0703
     37 H3         -3.8374   -4.5643    7.1899 H         1 <0>         0.0660
     38 H4         -2.8427   -3.4383    8.1443 H         1 <0>         0.0662
     39 H5         -4.8957   -3.8473    5.1298 H         1 <0>         0.1246
     40 H6         -4.8276   -2.3067    3.2134 H         1 <0>         0.1309
     41 H7         -3.6113   -0.1755    3.3851 H         1 <0>         0.1351
     42 H8         -2.5120   -1.1502    7.4144 H         1 <0>         0.1311
     43 H9         -1.6405   -0.0725    3.0218 H         1 <0>         0.1059
     44 H10        -0.5322    1.2818    2.6962 H         1 <0>         0.1018
     45 H11        -3.5808    1.4338    2.6827 H         1 <0>         0.0738
     46 H12        -2.4725    2.7880    2.3570 H         1 <0>         0.0800
     47 H13        -1.7580    4.6962    6.4552 H         1 <0>         0.0857
     48 H14        -0.8875    6.1631    6.9638 H         1 <0>         0.0693
     49 H15        -1.5617    6.0532    5.3201 H         1 <0>         0.0656
     50 H16         1.8348    6.4584    7.1655 H         1 <0>         0.1494
     51 H17         5.0859   11.1643    6.4171 H         1 <0>         0.1277
     52 H18         6.7085   11.6741    4.6319 H         1 <0>         0.1294
     53 H19         6.9290   10.1590    2.7045 H         1 <0>         0.1308
     54 H20         5.5415    8.1394    2.5525 H         1 <0>         0.1262
     55 H21         2.7610    6.5958    2.8344 H         1 <0>         0.0966
     56 H22         4.4757    6.1870    3.0807 H         1 <0>         0.0717
     57 H23         3.2252    5.4273    4.0942 H         1 <0>         0.0818
     58 H24         1.3765    9.2876    7.1150 H         1 <0>         0.0741
     59 H25         2.5061   10.6616    7.0477 H         1 <0>         0.0703
     60 H26         1.7936   10.0210    5.5476 H         1 <0>         0.0606
     61 H27         4.7933    7.7987    7.6437 H         1 <0>         0.0610
     62 H28         4.2432    9.3747    8.2615 H         1 <0>         0.0697
     63 H29         3.1771    7.9537    8.3731 H         1 <0>         0.0725
     64 O3         -3.3768    1.7775   -0.0582 O.co2     1 <0>        -0.7585
@<TRIPOS>BOND
     1    1    2 1
     2    1   36 1
     3    1   37 1
     4    1   38 1
     5    2    7 ar
     6    2    3 ar
     7    3    4 ar
     8    3   39 1
     9    4    5 ar
    10    4   40 1
    11    5    6 ar
    12    5   41 1
    13    6    7 ar
    14    6    8 1
    15    7   42 1
    16    8   12 1
    17    8    9 2
    18    9   10 1
    19   10   11 2
    20   11   12 1
    21   11   17 1
    22   12   13 1
    23   13   14 1
    24   13   43 1
    25   13   44 1
    26   14   15 1
    27   14   45 1
    28   14   46 1
    29   15   16 2
    30   15   64 1
    31   17   18 1
    32   18   19 1
    33   18   20 1
    34   18   21 1
    35   20   47 1
    36   20   48 1
    37   20   49 1
    38   21   22 2
    39   21   23 1
    40   23   24 2
    41   23   50 1
    42   24   32 1
    43   24   25 1
    44   25   26 1
    45   25   34 1
    46   25   35 1
    47   26   31 ar
    48   26   27 ar
    49   27   28 ar
    50   27   51 1
    51   28   29 ar
    52   28   52 1
    53   29   30 ar
    54   29   53 1
    55   30   31 ar
    56   30   54 1
    57   31   32 1
    58   32   33 1
    59   33   55 1
    60   33   56 1
    61   33   57 1
    62   34   58 1
    63   34   59 1
    64   34   60 1
    65   35   61 1
    66   35   62 1
    67   35   63 1
@<TRIPOS>MOLECULE
ZINC09166281
   63    66     0     0     0
SMALL
USER_CHARGES

@<TRIPOS>ATOM
      1 C1         -1.0246    1.5145    2.9122 C.3       1 <0>        -0.1528
      2 C2         -1.1505   -0.0073    2.8175 C.3       1 <0>        -0.1169
      3 C3         -0.2806   -0.5205    1.6682 C.3       1 <0>        -0.0482
      4 H1          0.7445   -0.1770    1.8070 H         1 <0>         0.0755
      5 C4         -0.8223    0.0138    0.3408 C.3       1 <0>        -0.1454
      6 C5         -0.3076   -2.0272    1.6518 C.ar      1 <0>        -0.0826
      7 C6         -1.5070   -2.6940    1.4814 C.ar      1 <0>        -0.1070
      8 C7         -1.5350   -4.0748    1.4659 C.ar      1 <0>        -0.0975
      9 C8         -0.3572   -4.7933    1.6216 C.ar      1 <0>         0.1591
     10 C9          0.8454   -4.1210    1.7925 C.ar      1 <0>        -0.0981
     11 C10         0.8678   -2.7400    1.8015 C.ar      1 <0>        -0.1100
     12 N1         -0.3824   -6.1944    1.6068 N.am      1 <0>        -0.5337
     13 C11        -0.5298   -6.8672    2.7680 C.2       1 <0>         0.5644
     14 O1         -0.6414   -6.2765    3.8267 O.2       1 <0>        -0.5198
     15 C12        -0.5516   -8.3374    2.7127 C.2       1 <0>        -0.2649
     16 C13        -0.6999   -9.1061    3.8621 C.2       1 <0>         0.0657
     17 C14        -0.5876  -10.5041    3.7913 C.2       1 <0>         0.0211
     18 C15        -1.5638  -11.4285    4.1468 C.2       1 <0>        -0.1517
     19 C16        -1.0272  -12.6935    3.9161 C.2       1 <0>        -0.2061
     20 C17         0.2339  -12.5329    3.4364 C.2       1 <0>         0.0116
     21 N2          0.5099  -11.2153    3.3504 N.pl3     1 <0>        -0.3891
     22 C18         1.7676  -10.6356    2.8723 C.3       1 <0>         0.1066
     23 C19         2.6103  -10.1886    4.0685 C.3       1 <0>         0.0482
     24 O2          3.8292   -9.6069    3.6016 O.3       1 <0>        -0.3079
     25 C20         4.6978   -9.1548    4.5440 C.ar      1 <0>         0.1382
     26 C21         4.3858   -9.2739    5.8908 C.ar      1 <0>        -0.2135
     27 C22         5.2705   -8.8140    6.8467 C.ar      1 <0>        -0.0758
     28 C23         6.4662   -8.2353    6.4624 C.ar      1 <0>        -0.1613
     29 C24         6.7791   -8.1150    5.1213 C.ar      1 <0>        -0.0486
     30 C25         5.9001   -8.5787    4.1613 C.ar      1 <0>        -0.1526
     31 C26         8.0828   -7.4834    4.7061 C.3       1 <0>        -0.1147
     32 C27        -0.4094   -8.9594    1.3814 C.2       1 <0>         0.5316
     33 N3         -0.2703   -8.1569    0.3131 N.2       1 <0>        -0.6667
     34 C28        -0.2635   -6.8521    0.4222 C.2       1 <0>         0.6360
     35 O3         -0.1253   -6.1204   -0.7009 O.3       1 <0>        -0.6432
     36 O4         -0.4176  -10.1725    1.2546 O.2       1 <0>        -0.5234
     37 H2         -1.3557    1.9654    1.9766 H         1 <0>         0.0560
     38 H3         -1.6443    1.8801    3.7310 H         1 <0>         0.0516
     39 H4          0.0158    1.7823    3.0964 H         1 <0>         0.0524
     40 H5         -0.8195   -0.4582    3.7531 H         1 <0>         0.0633
     41 H6         -2.1909   -0.2751    2.6333 H         1 <0>         0.0636
     42 H7         -0.8027    1.1035    0.3527 H         1 <0>         0.0568
     43 H8         -0.2026   -0.3518   -0.4780 H         1 <0>         0.0568
     44 H9         -1.8474   -0.3297    0.2020 H         1 <0>         0.0566
     45 H10        -2.4229   -2.1344    1.3607 H         1 <0>         0.1219
     46 H11        -2.4721   -4.5950    1.3331 H         1 <0>         0.1192
     47 H12         1.7631   -4.6773    1.9142 H         1 <0>         0.1184
     48 H13         1.8036   -2.2164    1.9300 H         1 <0>         0.1219
     49 H14        -0.9014   -8.6278    4.8093 H         1 <0>         0.1441
     50 H15        -2.5497  -11.2081    4.5287 H         1 <0>         0.1370
     51 H16        -1.5257  -13.6359    4.0886 H         1 <0>         0.1347
     52 H17         0.9065  -13.3326    3.1635 H         1 <0>         0.1589
     53 H18         2.3172  -11.3824    2.2994 H         1 <0>         0.1036
     54 H19         1.5532   -9.7759    2.2374 H         1 <0>         0.1053
     55 H20         2.0551   -9.4518    4.6491 H         1 <0>         0.0677
     56 H21         2.8362  -11.0506    4.6963 H         1 <0>         0.0695
     57 H22         3.4519   -9.7254    6.1914 H         1 <0>         0.1265
     58 H23         5.0280   -8.9061    7.8951 H         1 <0>         0.1243
     59 H24         7.1566   -7.8763    7.2114 H         1 <0>         0.1222
     60 H25         6.1471   -8.4886    3.1138 H         1 <0>         0.1313
     61 H26         8.8511   -8.2528    4.6292 H         1 <0>         0.0724
     62 H27         7.9587   -6.9961    3.7390 H         1 <0>         0.0692
     63 H28         8.3817   -6.7445    5.4496 H         1 <0>         0.0682
@<TRIPOS>BOND
     1    1    2 1
     2    1   37 1
     3    1   38 1
     4    1   39 1
     5    2    3 1
     6    2   40 1
     7    2   41 1
     8    3    4 1
     9    3    5 1
    10    3    6 1
    11    5   42 1
    12    5   43 1
    13    5   44 1
    14    6   11 ar
    15    6    7 ar
    16    7    8 ar
    17    7   45 1
    18    8    9 ar
    19    8   46 1
    20    9   10 ar
    21    9   12 1
    22   10   11 ar
    23   10   47 1
    24   11   48 1
    25   12   34 1
    26   12   13 am
    27   13   14 2
    28   13   15 1
    29   15   16 2
    30   15   32 1
    31   16   17 1
    32   16   49 1
    33   17   21 1
    34   17   18 2
    35   18   19 1
    36   18   50 1
    37   19   20 2
    38   19   51 1
    39   20   21 1
    40   20   52 1
    41   21   22 1
    42   22   23 1
    43   22   53 1
    44   22   54 1
    45   23   24 1
    46   23   55 1
    47   23   56 1
    48   24   25 1
    49   25   30 ar
    50   25   26 ar
    51   26   27 ar
    52   26   57 1
    53   27   28 ar
    54   27   58 1
    55   28   29 ar
    56   28   59 1
    57   29   30 ar
    58   29   31 1
    59   30   60 1
    60   31   61 1
    61   31   62 1
    62   31   63 1
    63   32   33 1
    64   32   36 2
    65   33   34 2
    66   34   35 1
@<TRIPOS>MOLECULE
ZINC13449131
   48    49     0     0     0
SMALL
USER_CHARGES

@<TRIPOS>ATOM
      1 C1         -0.0127    1.0858    0.0080 C.3       1 <0>        -0.0912
      2 C2         -0.7416    1.5850   -1.2129 C.ar      1 <0>         0.1574
      3 C3         -2.1064    1.7992   -1.1728 C.ar      1 <0>        -0.2697
      4 C4         -2.7418    2.2620   -2.3247 C.ar      1 <0>         0.4447
      5 O1         -4.0784    2.4858   -2.3293 O.3       1 <0>        -0.6923
      6 N1         -2.0193    2.4807   -3.4162 N.ar      1 <0>        -0.6199
      7 C5         -0.7117    2.2634   -3.4154 C.ar      1 <0>         0.3067
      8 N2         -0.0804    1.8286   -2.3343 N.ar      1 <0>        -0.5841
      9 S1          0.2107    2.5664   -4.8858 S.3       1 <0>         0.0000
     10 C6         -1.0336    3.1415   -6.0738 C.3       1 <0>        -0.0982
     11 H1         -1.5699    3.9930   -5.6547 H         1 <0>         0.1145
     12 C7         -2.0214    2.0102   -6.3657 C.3       1 <0>        -0.1386
     13 C8         -0.3531    3.5566   -7.3527 C.2       1 <0>         0.5459
     14 O2          0.7236    3.0828   -7.6481 O.2       1 <0>        -0.5202
     15 N3         -0.9409    4.4542   -8.1683 N.am      1 <0>        -0.7278
     16 C9         -0.2793    4.8577   -9.4115 C.3       1 <0>         0.1803
     17 H2          0.2569    4.0063   -9.8306 H         1 <0>         0.1086
     18 C10         0.7085    5.9891   -9.1197 C.3       1 <0>        -0.1590
     19 C11        -1.3131    5.3355  -10.3985 C.ar      1 <0>        -0.0714
     20 C12        -2.5202    5.8358   -9.9472 C.ar      1 <0>        -0.0900
     21 C13        -3.4687    6.2741  -10.8516 C.ar      1 <0>        -0.0957
     22 C14        -3.2104    6.2130  -12.2098 C.ar      1 <0>        -0.0278
     23 C15        -2.0027    5.7130  -12.6619 C.ar      1 <0>        -0.0986
     24 C16        -1.0516    5.2788  -11.7558 C.ar      1 <0>        -0.0184
     25 Cl1         0.4669    4.6567  -12.3221 Cl        1 <0>        -0.0487
     26 Cl2        -4.4022    6.7632  -13.3458 Cl        1 <0>        -0.0600
     27 C17        -2.8905    1.5379    0.0873 C.3       1 <0>        -0.0162
     28 C18        -2.9300    2.8100    0.9364 C.3       1 <0>        -0.1649
     29 C19        -3.7141    2.5488    2.1966 C.2       1 <0>         0.4940
     30 O3         -4.1966    1.4472    2.3970 O.co2     1 <0>        -0.7029
     31 O4         -3.8659    3.4390    3.0157 O.co2     1 <0>        -0.7219
     32 H3          0.0021   -0.0041    0.0020 H         1 <0>         0.0635
     33 H4          1.0099    1.4631    0.0003 H         1 <0>         0.0608
     34 H5         -0.5229    1.4373    0.9048 H         1 <0>         0.0747
     35 H6         -2.5136    1.7100   -5.4406 H         1 <0>         0.1037
     36 H7         -2.7691    2.3558   -7.0795 H         1 <0>         0.0538
     37 H8         -1.4851    1.1587   -6.7847 H         1 <0>         0.0594
     38 H9         -1.8020    4.8332   -7.9320 H         1 <0>         0.4013
     39 H10         1.4562    5.6435   -8.4058 H         1 <0>         0.0747
     40 H11         1.2007    6.2893  -10.0447 H         1 <0>         0.0672
     41 H12         0.1722    6.8405   -8.7006 H         1 <0>         0.0615
     42 H13        -2.7222    5.8837   -8.8873 H         1 <0>         0.1448
     43 H14        -4.4118    6.6642  -10.4985 H         1 <0>         0.1444
     44 H15        -1.8006    5.6651  -13.7218 H         1 <0>         0.1451
     45 H16        -3.9072    1.2425   -0.1720 H         1 <0>         0.0640
     46 H17        -2.4129    0.7380    0.6532 H         1 <0>         0.0478
     47 H18        -1.9133    3.1055    1.1958 H         1 <0>         0.0443
     48 H19        -3.4076    3.6099    0.3706 H         1 <0>         0.0542
@<TRIPOS>BOND
     1    1   32 1
     2    1   33 1
     3    1   34 1
     4    1    2 1
     5    2    3 ar
     6    2    8 ar
     7    3    4 ar
     8    3   27 1
     9    4    6 ar
    10    4    5 1
    11    6    7 ar
    12    7    8 ar
    13    7    9 1
    14    9   10 1
    15   10   11 1
    16   10   12 1
    17   10   13 1
    18   12   35 1
    19   12   36 1
    20   12   37 1
    21   13   14 2
    22   13   15 am
    23   15   16 1
    24   15   38 1
    25   16   17 1
    26   16   18 1
    27   16   19 1
    28   18   39 1
    29   18   40 1
    30   18   41 1
    31   19   24 ar
    32   19   20 ar
    33   20   21 ar
    34   20   42 1
    35   21   22 ar
    36   21   43 1
    37   22   23 ar
    38   22   26 1
    39   23   24 ar
    40   23   44 1
    41   24   25 1
    42   27   28 1
    43   27   45 1
    44   27   46 1
    45   28   29 1
    46   28   47 1
    47   28   48 1
    48   29   30 2
    49   29   31 1
@<TRIPOS>MOLECULE
ZINC43726901
   76    79     0     0     0
SMALL
USER_CHARGES

@<TRIPOS>ATOM
      1 C1         -0.0638    1.5241    0.0367 C.3       1 <0>        -0.1543
      2 C2          0.0021   -0.0041    0.0020 C.3       1 <0>        -0.0941
      3 H1         -1.0053   -0.4131    0.0802 H         1 <0>         0.0703
      4 C3          0.6358   -0.4574   -1.3147 C.3       1 <0>        -0.0835
      5 C4         -0.2742   -0.0650   -2.4804 C.3       1 <0>        -0.1829
      6 C5          0.3500   -0.5115   -3.7773 C.2       1 <0>         0.4873
      7 O1          1.4232   -1.0901   -3.7700 O.co2     1 <0>        -0.6988
      8 O2         -0.2182   -0.2943   -4.8339 O.co2     1 <0>        -0.7121
      9 C6          0.8486   -0.5050    1.1747 C.3       1 <0>        -0.0561
     10 H2          1.8445   -0.0745    1.1320 H         1 <0>         0.0770
     11 C7          0.9155   -2.0466    1.1524 C.3       1 <0>        -0.1026
     12 C8          0.6673   -2.5294    2.5985 C.3       1 <0>        -0.1121
     13 C9          0.6537   -1.2531    3.4746 C.3       1 <0>        -0.0626
     14 H3         -0.1071   -1.3734    4.2836 H         1 <0>         0.0763
     15 C10         0.1645   -0.1679    2.5054 C.3       1 <0>        -0.0463
     16 C11         0.4142    1.2356    2.9934 C.3       1 <0>         0.0879
     17 H4          0.2397    1.9405    2.1780 H         1 <0>         0.1024
     18 C12         1.8527    1.4147    3.4906 C.3       1 <0>        -0.1419
     19 C13         2.1035    0.4426    4.6409 C.3       1 <0>        -0.0533
     20 H5          1.3032    0.5750    5.3916 H         1 <0>         0.0852
     21 C14         1.9983   -0.9883    4.1031 C.3       1 <0>        -0.1183
     22 H6          2.0869   -1.6719    4.9676 H         1 <0>         0.0945
     23 C15         3.1871   -1.2398    3.2190 C.2       1 <0>         0.3596
     24 O3          3.1200   -1.5376    2.0594 O.2       1 <0>        -0.4156
     25 C16         4.5479   -1.0923    3.8785 C.3       1 <0>        -0.1727
     26 C17         4.6563    0.2996    4.4967 C.3       1 <0>        -0.0606
     27 H7          5.5243    0.2620    5.1922 H         1 <0>         0.0828
     28 C18         3.4447    0.6841    5.3210 C.3       1 <0>        -0.0396
     29 C19         3.5317    2.1235    5.8288 C.3       1 <0>        -0.0965
     30 C20         4.0313    3.1387    4.8222 C.3       1 <0>        -0.1385
     31 C21         5.2875    2.6686    4.0956 C.3       1 <0>         0.0917
     32 H8          5.5624    3.4008    3.3336 H         1 <0>         0.0843
     33 C22         5.0015    1.3242    3.4232 C.3       1 <0>        -0.1178
     34 O4          6.3629    2.5277    5.0238 O.3       1 <0>        -0.3409
     35 C23         7.1367    3.6054    5.2281 C.2       1 <0>         0.4556
     36 O5          6.9076    4.6343    4.6375 O.2       1 <0>        -0.5132
     37 C24         8.2911    3.5319    6.1939 C.3       1 <0>        -0.1468
     38 C25         3.4727   -0.2020    6.6014 C.3       1 <0>        -0.1493
     39 O6         -0.4884    1.5365    4.0600 O.3       1 <0>        -0.3406
     40 C26        -0.8577    2.8192    4.2023 C.2       1 <0>         0.4525
     41 O7         -0.4290    3.6587    3.4464 O.2       1 <0>        -0.5110
     42 C27        -1.8071    3.2121    5.3047 C.3       1 <0>        -0.1476
     43 C28        -1.3521   -0.3402    2.3168 C.3       1 <0>        -0.1482
     44 H9          0.9420    1.9287    0.1497 H         1 <0>         0.0498
     45 H10        -0.5004    1.8902   -0.8925 H         1 <0>         0.0609
     46 H11        -0.6800    1.8422    0.8777 H         1 <0>         0.0492
     47 H12         1.6072    0.0223   -1.4346 H         1 <0>         0.0550
     48 H13         0.7642   -1.5398   -1.3024 H         1 <0>         0.0611
     49 H14        -1.2456   -0.5447   -2.3605 H         1 <0>         0.0512
     50 H15        -0.4026    1.0174   -2.4927 H         1 <0>         0.0553
     51 H16         0.1243   -2.4343    0.5006 H         1 <0>         0.0522
     52 H17         1.8752   -2.3921    0.7836 H         1 <0>         0.0829
     53 H18        -0.2888   -3.0563    2.6617 H         1 <0>         0.0599
     54 H19         1.4692   -3.2048    2.9115 H         1 <0>         0.0542
     55 H20         2.5316    1.2154    2.6656 H         1 <0>         0.0830
     56 H21         1.9602    2.4410    3.8375 H         1 <0>         0.0794
     57 H22         4.6660   -1.8576    4.6426 H         1 <0>         0.0926
     58 H23         5.3239   -1.2169    3.1203 H         1 <0>         0.0882
     59 H24         2.5342    2.4266    6.1820 H         1 <0>         0.0620
     60 H25         4.1917    2.1373    6.7106 H         1 <0>         0.0629
     61 H26         3.2651    3.3978    4.0953 H         1 <0>         0.0856
     62 H27         4.2816    4.0706    5.3598 H         1 <0>         0.0617
     63 H28         5.9013    0.9979    2.8902 H         1 <0>         0.0743
     64 H29         4.1935    1.4307    2.7092 H         1 <0>         0.0897
     65 H30         8.3399    2.5326    6.6265 H         1 <0>         0.0905
     66 H31         9.2206    3.7451    5.6660 H         1 <0>         0.1037
     67 H32         8.1479    4.2649    6.9878 H         1 <0>         0.1028
     68 H33         3.3666   -1.2498    6.3206 H         1 <0>         0.0573
     69 H34         4.4200   -0.0593    7.1214 H         1 <0>         0.0575
     70 H35         2.6510    0.0830    7.2585 H         1 <0>         0.0560
     71 H36        -2.0833    2.3276    5.8788 H         1 <0>         0.0892
     72 H37        -1.3224    3.9347    5.9613 H         1 <0>         0.1011
     73 H38        -2.7023    3.6582    4.8715 H         1 <0>         0.1025
     74 H39        -1.5658   -1.3634    2.0076 H         1 <0>         0.0606
     75 H40        -1.8613   -0.1311    3.2576 H         1 <0>         0.0553
     76 H41        -1.7040    0.3517    1.5516 H         1 <0>         0.0628
@<TRIPOS>BOND
     1    1    2 1
     2    1   44 1
     3    1   45 1
     4    1   46 1
     5    2    3 1
     6    2    4 1
     7    2    9 1
     8    4    5 1
     9    4   47 1
    10    4   48 1
    11    5    6 1
    12    5   49 1
    13    5   50 1
    14    6    7 2
    15    6    8 1
    16    9   10 1
    17    9   15 1
    18    9   11 1
    19   11   12 1
    20   11   51 1
    21   11   52 1
    22   12   13 1
    23   12   53 1
    24   12   54 1
    25   13   14 1
    26   13   21 1
    27   13   15 1
    28   15   16 1
    29   15   43 1
    30   16   17 1
    31   16   18 1
    32   16   39 1
    33   18   19 1
    34   18   55 1
    35   18   56 1
    36   19   20 1
    37   19   28 1
    38   19   21 1
    39   21   22 1
    40   21   23 1
    41   23   24 2
    42   23   25 1
    43   25   26 1
    44   25   57 1
    45   25   58 1
    46   26   27 1
    47   26   33 1
    48   26   28 1
    49   28   29 1
    50   28   38 1
    51   29   30 1
    52   29   59 1
    53   29   60 1
    54   30   31 1
    55   30   61 1
    56   30   62 1
    57   31   32 1
    58   31   33 1
    59   31   34 1
    60   33   63 1
    61   33   64 1
    62   34   35 1
    63   35   36 2
    64   35   37 1
    65   37   65 1
    66   37   66 1
    67   37   67 1
    68   38   68 1
    69   38   69 1
    70   38   70 1
    71   39   40 1
    72   40   41 2
    73   40   42 1
    74   42   71 1
    75   42   72 1
    76   42   73 1
    77   43   74 1
    78   43   75 1
    79   43   76 1
@<TRIPOS>MOLECULE
ZINC06607609
   54    57     0     0     0
SMALL
USER_CHARGES
2-(4-indan-5-yl-4-methyl-2,5-dioxo-imidazolidin-1-yl)-N-(3-methyl-1,1-dioxo-thiolan-3-yl)-acetamide
@<TRIPOS>ATOM
      1 C1          0.2040   -1.7502    5.5513 C.3       1 <0>        -0.1713
      2 C2          1.6411   -1.7022    6.0741 C.3       1 <0>         0.1849
      3 C3          1.8947   -0.3242    6.6836 C.3       1 <0>        -0.1427
      4 C4          1.5287   -0.3246    8.1924 C.3       1 <0>        -0.5609
      5 S1          2.1747   -1.9897    8.6618 S.o2      1 <0>         2.3672
      6 O1          1.3491   -2.5418    9.6781 O.2       1 <0>        -0.9314
      7 O2          3.5788   -1.9064    8.8639 O.2       1 <0>        -0.9251
      8 C5          1.8421   -2.8586    7.0729 C.3       1 <0>        -0.5893
      9 N1          2.5561   -1.8921    4.9458 N.am      1 <0>        -0.7195
     10 C6          2.5331   -1.0330    3.9076 C.2       1 <0>         0.5042
     11 O3          1.7549   -0.1027    3.9074 O.2       1 <0>        -0.5132
     12 C7          3.4744   -1.2283    2.7470 C.3       1 <0>         0.0975
     13 N2          3.2541   -0.1716    1.7565 N.am      1 <0>        -0.5613
     14 C8          2.3784   -0.2637    0.7316 C.2       1 <0>         0.5442
     15 O4          1.6534   -1.1982    0.4657 O.2       1 <0>        -0.4539
     16 C9          2.4908    1.0498   -0.0166 C.3       1 <0>         0.1722
     17 N3          3.5108    1.7968    0.7394 N.am      1 <0>        -0.7146
     18 C10         3.8957    1.0024    1.7546 C.2       1 <0>         0.7121
     19 O5          4.7328    1.3162    2.5780 O.2       1 <0>        -0.5352
     20 C11         2.9540    0.8119   -1.4553 C.3       1 <0>        -0.1445
     21 C12         1.1748    1.7840    0.0004 C.ar      1 <0>        -0.0968
     22 C13        -0.0126    1.0758    0.0080 C.ar      1 <0>        -0.1032
     23 C14        -1.2175    1.7507    0.0173 C.ar      1 <0>        -0.1015
     24 C15        -1.2406    3.1354    0.0308 C.ar      1 <0>        -0.0849
     25 C16        -0.0536    3.8434    0.0233 C.ar      1 <0>        -0.0960
     26 C17         1.1537    3.1648    0.0081 C.ar      1 <0>        -0.0822
     27 C18        -0.3437    5.3290    0.0335 C.3       1 <0>        -0.0829
     28 C19        -1.8137    5.4503    0.4882 C.3       1 <0>        -0.1213
     29 C20        -2.4097    4.0968    0.0467 C.3       1 <0>        -0.0856
     30 H1          0.0159   -2.7216    5.0941 H         1 <0>         0.0666
     31 H2         -0.4889   -1.5978    6.3788 H         1 <0>         0.0717
     32 H3          0.0612   -0.9653    4.8085 H         1 <0>         0.0888
     33 H4          2.9473   -0.0663    6.5667 H         1 <0>         0.0930
     34 H5          1.2837    0.4164    6.1675 H         1 <0>         0.1166
     35 H6          0.4510   -0.2598    8.3421 H         1 <0>         0.1419
     36 H7          2.0501    0.4692    8.7274 H         1 <0>         0.1456
     37 H8          0.9389   -3.4641    7.1473 H         1 <0>         0.1538
     38 H9          2.6935   -3.4741    6.7826 H         1 <0>         0.1476
     39 H10         3.1785   -2.6361    4.9460 H         1 <0>         0.4071
     40 H11         3.2896   -2.1999    2.2889 H         1 <0>         0.1293
     41 H12         4.5038   -1.1840    3.1026 H         1 <0>         0.1325
     42 H13         3.8409    2.6875    0.5432 H         1 <0>         0.4412
     43 H14         3.0768    1.7698   -1.9606 H         1 <0>         0.0840
     44 H15         3.9057    0.2806   -1.4474 H         1 <0>         0.0732
     45 H16         2.2094    0.2157   -1.9828 H         1 <0>         0.0878
     46 H17         0.0021   -0.0041    0.0020 H         1 <0>         0.1394
     47 H18        -2.1446    1.1968    0.0187 H         1 <0>         0.1250
     48 H19         2.0816    3.7173    0.0019 H         1 <0>         0.1193
     49 H20         0.3135    5.8378    0.7387 H         1 <0>         0.0760
     50 H21        -0.2198    5.7455   -0.9661 H         1 <0>         0.0823
     51 H22        -1.8763    5.5668    1.5701 H         1 <0>         0.0730
     52 H23        -2.3088    6.2788   -0.0183 H         1 <0>         0.0790
     53 H24        -3.1631    3.7643    0.7608 H         1 <0>         0.0769
     54 H25        -2.8448    4.1819   -0.9491 H         1 <0>         0.0832
@<TRIPOS>BOND
     1    1    2 1
     2    1   30 1
     3    1   31 1
     4    1   32 1
     5    2    8 1
     6    2    3 1
     7    2    9 1
     8    3    4 1
     9    3   33 1
    10    3   34 1
    11    4    5 1
    12    4   35 1
    13    4   36 1
    14    5    6 2
    15    5    7 2
    16    5    8 1
    17    8   37 1
    18    8   38 1
    19    9   10 am
    20    9   39 1
    21   10   11 2
    22   10   12 1
    23   12   13 1
    24   12   40 1
    25   12   41 1
    26   13   18 am
    27   13   14 am
    28   14   15 2
    29   14   16 1
    30   16   17 1
    31   16   20 1
    32   16   21 1
    33   17   18 am
    34   17   42 1
    35   18   19 2
    36   20   43 1
    37   20   44 1
    38   20   45 1
    39   21   26 ar
    40   21   22 ar
    41   22   23 ar
    42   22   46 1
    43   23   24 ar
    44   23   47 1
    45   24   29 1
    46   24   25 ar
    47   25   26 ar
    48   25   27 1
    49   26   48 1
    50   27   28 1
    51   27   49 1
    52   27   50 1
    53   28   29 1
    54   28   51 1
    55   28   52 1
    56   29   53 1
    57   29   54 1
@<TRIPOS>MOLECULE
ZINC17960532
   59    62     0     0     0
SMALL
USER_CHARGES
(3S)-1-(2,3-dihydro-1,4-benzodioxin-6-yl)-5-oxo-N-[2-oxo-2-[(2,4,6-trimethylphenyl)amino]ethyl]pyrrolidine-3-carboxamide
@<TRIPOS>ATOM
      1 C1        -11.7976   15.3087    0.6056 C.3       1 <0>        -0.1171
      2 C2        -11.1011   14.0004    0.3333 C.ar      1 <0>        -0.0724
      3 C3        -11.8375   12.8919   -0.0427 C.ar      1 <0>        -0.1203
      4 C4        -11.2022   11.6914   -0.2929 C.ar      1 <0>        -0.0769
      5 C5         -9.8224   11.5981   -0.1667 C.ar      1 <0>         0.1188
      6 C6         -9.0863   12.7116    0.2166 C.ar      1 <0>        -0.0588
      7 C7         -9.7271   13.9107    0.4603 C.ar      1 <0>        -0.1199
      8 C8         -7.5895   12.6133    0.3609 C.3       1 <0>        -0.1118
      9 N1         -9.1757   10.3833   -0.4195 N.am      1 <0>        -0.6715
     10 C9         -8.3260   10.2761   -1.4602 C.2       1 <0>         0.5113
     11 O1         -8.0747   11.2481   -2.1406 O.2       1 <0>        -0.5154
     12 C10        -7.6883    8.9483   -1.7785 C.3       1 <0>         0.1008
     13 N2         -6.8136    9.0937   -2.9447 N.am      1 <0>        -0.7157
     14 C11        -6.1337    8.0288   -3.4141 C.2       1 <0>         0.5244
     15 O2         -6.2460    6.9502   -2.8710 O.2       1 <0>        -0.5246
     16 C12        -5.2340    8.1784   -4.6137 C.3       1 <0>        -0.1235
     17 H1         -5.8059    8.4738   -5.4934 H         1 <0>         0.1377
     18 C13        -4.0959    9.1860   -4.3297 C.3       1 <0>        -0.1450
     19 C14        -2.9506    8.3249   -3.8445 C.2       1 <0>         0.5149
     20 O3         -1.9726    8.7363   -3.2568 O.2       1 <0>        -0.5014
     21 N3         -3.1743    7.0375   -4.1599 N.am      1 <0>        -0.5519
     22 C15        -4.4411    6.8782   -4.8836 C.3       1 <0>         0.1094
     23 C16        -2.3066    5.9839   -3.8438 C.ar      1 <0>         0.1725
     24 C17        -2.6806    4.6731   -4.1076 C.ar      1 <0>        -0.1476
     25 C18        -1.8262    3.6339   -3.7944 C.ar      1 <0>        -0.0840
     26 C19        -0.5931    3.8958   -3.2158 C.ar      1 <0>         0.0258
     27 C20        -0.2148    5.2072   -2.9530 C.ar      1 <0>         0.0802
     28 C21        -1.0732    6.2498   -3.2664 C.ar      1 <0>        -0.1531
     29 O4          0.9946    5.4844   -2.3932 O.3       1 <0>        -0.3037
     30 C22         1.6723    4.3983   -1.7522 C.3       1 <0>         0.0199
     31 C23         1.6109    3.1784   -2.6815 C.3       1 <0>         0.0206
     32 O5          0.2346    2.8579   -2.9111 O.3       1 <0>        -0.3071
     33 C24       -12.0055   10.4838   -0.7021 C.3       1 <0>        -0.1148
     34 H2        -12.0736   15.3611    1.6587 H         1 <0>         0.0729
     35 H3        -11.1277   16.1340    0.3641 H         1 <0>         0.0681
     36 H4        -12.6951   15.3774   -0.0092 H         1 <0>         0.0680
     37 H5        -12.9105   12.9652   -0.1410 H         1 <0>         0.1265
     38 H6         -9.1548   14.7781    0.7544 H         1 <0>         0.1260
     39 H7         -7.1127   12.9564   -0.5573 H         1 <0>         0.0787
     40 H8         -7.2631   13.2355    1.1942 H         1 <0>         0.0671
     41 H9         -7.3100   11.5769    0.5500 H         1 <0>         0.0587
     42 H10        -9.3389    9.6184    0.1542 H         1 <0>         0.4112
     43 H11        -8.4649    8.2150   -1.9959 H         1 <0>         0.1053
     44 H12        -7.1011    8.6130   -0.9235 H         1 <0>         0.1033
     45 H13        -6.7238    9.9563   -3.3790 H         1 <0>         0.4147
     46 H14        -4.3963    9.8926   -3.5560 H         1 <0>         0.1125
     47 H15        -3.8161    9.7152   -5.2406 H         1 <0>         0.1267
     48 H16        -4.2538    6.7621   -5.9510 H         1 <0>         0.0963
     49 H17        -4.9888    6.0173   -4.5002 H         1 <0>         0.1088
     50 H18        -3.6400    4.4659   -4.5583 H         1 <0>         0.1372
     51 H19        -2.1192    2.6150   -4.0003 H         1 <0>         0.1409
     52 H20        -0.7820    7.2693   -3.0605 H         1 <0>         0.1663
     53 H21         1.1813    4.1656   -0.8073 H         1 <0>         0.0786
     54 H22         2.7122    4.6694   -1.5698 H         1 <0>         0.1237
     55 H23         2.1119    2.3324   -2.2111 H         1 <0>         0.1229
     56 H24         2.0966    3.4130   -3.6287 H         1 <0>         0.0776
     57 H25       -12.3074    9.9300    0.1869 H         1 <0>         0.0733
     58 H26       -12.8923   10.8054   -1.2483 H         1 <0>         0.0705
     59 H27       -11.3980    9.8427   -1.3408 H         1 <0>         0.0645
@<TRIPOS>BOND
     1    1    2 1
     2    1   34 1
     3    1   35 1
     4    1   36 1
     5    2    7 ar
     6    2    3 ar
     7    3    4 ar
     8    3   37 1
     9    4    5 ar
    10    4   33 1
    11    5    6 ar
    12    5    9 1
    13    6    7 ar
    14    6    8 1
    15    7   38 1
    16    8   39 1
    17    8   40 1
    18    8   41 1
    19    9   10 am
    20    9   42 1
    21   10   11 2
    22   10   12 1
    23   12   13 1
    24   12   43 1
    25   12   44 1
    26   13   14 am
    27   13   45 1
    28   14   15 2
    29   14   16 1
    30   16   17 1
    31   16   22 1
    32   16   18 1
    33   18   19 1
    34   18   46 1
    35   18   47 1
    36   19   20 2
    37   19   21 am
    38   21   22 1
    39   21   23 1
    40   22   48 1
    41   22   49 1
    42   23   28 ar
    43   23   24 ar
    44   24   25 ar
    45   24   50 1
    46   25   26 ar
    47   25   51 1
    48   26   32 1
    49   26   27 ar
    50   27   28 ar
    51   27   29 1
    52   28   52 1
    53   29   30 1
    54   30   31 1
    55   30   53 1
    56   30   54 1
    57   31   32 1
    58   31   55 1
    59   31   56 1
    60   33   57 1
    61   33   58 1
    62   33   59 1
@<TRIPOS>MOLECULE
ZINC32091732
   49    52     0     0     0
SMALL
USER_CHARGES
N-[(1S)-2-[[(3S)-1,1-dioxothiolan-3-yl]amino]-1-methyl-2-oxo-ethyl]-2-pyrrol-1-yl-1,3-benzothiazole-6-carboxamide
@<TRIPOS>ATOM
      1 C1         -2.8163    0.7433    1.4565 C.3       1 <0>        -0.1616
      2 C2         -2.4493    1.1201    0.0198 C.3       1 <0>         0.1296
      3 H1         -2.3016    0.2224   -0.5986 H         1 <0>         0.1192
      4 C3         -3.5426    1.9726   -0.5709 C.2       1 <0>         0.5178
      5 O1         -3.2949    3.0958   -0.9556 O.2       1 <0>        -0.5335
      6 N1         -4.7958    1.4868   -0.6717 N.am      1 <0>        -0.7289
      7 C4         -5.8586    2.3156   -1.2459 C.3       1 <0>         0.1445
      8 H2         -5.6443    3.3557   -0.9591 H         1 <0>         0.1137
      9 C5         -5.8480    2.1711   -2.7767 C.3       1 <0>        -0.1504
     10 C6         -7.1582    2.7983   -3.3319 C.3       1 <0>        -0.5775
     11 S1         -8.3723    2.2024   -2.0806 S.o2      1 <0>         2.3922
     12 O2         -8.9345    0.9768   -2.5291 O.2       1 <0>        -0.9284
     13 O3         -9.2314    3.2756   -1.7210 O.2       1 <0>        -0.9304
     14 C7         -7.2265    1.8593   -0.6835 C.3       1 <0>        -0.6012
     15 N2         -1.1906    1.8697    0.0179 N.am      1 <0>        -0.7229
     16 C8         -0.0144    1.2118    0.0087 C.2       1 <0>         0.5717
     17 O4          0.0021   -0.0041    0.0020 O.2       1 <0>        -0.5346
     18 C9          1.2529    1.9667    0.0007 C.ar      1 <0>        -0.1192
     19 C10         1.2461    3.3687    0.0083 C.ar      1 <0>        -0.0701
     20 C11         2.3985    4.0823    0.0016 C.ar      1 <0>        -0.0692
     21 C12         3.6594    3.4351   -0.0134 C.ar      1 <0>         0.1333
     22 C13         3.6400    2.0185   -0.0209 C.ar      1 <0>        -0.1677
     23 C14         2.4793    1.2946   -0.0088 C.ar      1 <0>         0.0100
     24 S2          5.3712    1.6184   -0.0395 S.3       1 <0>         0.0654
     25 C15         5.9861    3.2968   -0.0363 C.2       1 <0>         0.3729
     26 N3          4.8765    3.9999   -0.0219 N.2       1 <0>        -0.5334
     27 N4          7.3010    3.7435   -0.0470 N.pl3     1 <0>        -0.3674
     28 C16         8.4139    2.9485   -0.0564 C.2       1 <0>        -0.0159
     29 C17         9.5001    3.7459   -0.0690 C.2       1 <0>        -0.1604
     30 C18         9.0466    5.0813   -0.0574 C.2       1 <0>        -0.1780
     31 C19         7.6994    5.0519   -0.0441 C.2       1 <0>         0.0138
     32 H3         -2.0182    0.1210    1.8876 H         1 <0>         0.0783
     33 H4         -3.7614    0.1804    1.4579 H         1 <0>         0.0736
     34 H5         -2.9332    1.6576    2.0569 H         1 <0>         0.0671
     35 H6         -5.0206    0.4681   -0.3229 H         1 <0>         0.4298
     36 H7         -4.9732    2.6957   -3.1884 H         1 <0>         0.1058
     37 H8         -5.7957    1.1054   -3.0441 H         1 <0>         0.0933
     38 H9         -7.0559    3.8931   -3.3636 H         1 <0>         0.1451
     39 H10        -7.3453    2.4180   -4.3470 H         1 <0>         0.1481
     40 H11        -7.1788    0.7912   -0.4250 H         1 <0>         0.1487
     41 H12        -7.4663    2.4441    0.2168 H         1 <0>         0.1518
     42 H13        -1.2055    2.9696    0.0240 H         1 <0>         0.4323
     43 H14         0.3013    3.8918    0.0193 H         1 <0>         0.1404
     44 H15         2.3552    5.1614    0.0074 H         1 <0>         0.1436
     45 H16         2.5096    0.2150   -0.0103 H         1 <0>         0.1508
     46 H17         8.4208    1.8685   -0.0567 H         1 <0>         0.1740
     47 H18        10.5302    3.4215   -0.0813 H         1 <0>         0.1548
     48 H19         9.6660    5.9660   -0.0583 H         1 <0>         0.1535
     49 H20         7.0472    5.9127   -0.0330 H         1 <0>         0.1756
@<TRIPOS>BOND
     1    1    2 1
     2    1   32 1
     3    1   33 1
     4    1   34 1
     5    2    3 1
     6    2    4 1
     7    2   15 1
     8    4    5 2
     9    4    6 am
    10    6    7 1
    11    6   35 1
    12    7    8 1
    13    7   14 1
    14    7    9 1
    15    9   10 1
    16    9   36 1
    17    9   37 1
    18   10   11 1
    19   10   38 1
    20   10   39 1
    21   11   12 2
    22   11   13 2
    23   11   14 1
    24   14   40 1
    25   14   41 1
    26   15   16 am
    27   15   42 1
    28   16   17 2
    29   16   18 1
    30   18   23 ar
    31   18   19 ar
    32   19   20 ar
    33   19   43 1
    34   20   21 ar
    35   20   44 1
    36   21   26 1
    37   21   22 ar
    38   22   23 ar
    39   22   24 1
    40   23   45 1
    41   24   25 1
    42   25   26 2
    43   25   27 1
    44   27   31 1
    45   27   28 1
    46   28   29 2
    47   28   46 1
    48   29   30 1
    49   29   47 1
    50   30   31 2
    51   30   48 1
    52   31   49 1
@<TRIPOS>MOLECULE
ZINC38598792
   48    52     0     0     0
SMALL
USER_CHARGES

@<TRIPOS>ATOM
      1 C1         -0.0184    1.5028    0.0103 C.3       1 <0>        -0.1088
      2 C2          0.0021   -0.0041    0.0020 C.2       1 <0>         0.2024
      3 C3         -1.0690   -0.7555    0.0030 C.2       1 <0>        -0.2945
      4 C4         -2.5216   -0.3085    0.0712 C.3       1 <0>         0.0794
      5 H1         -2.8272   -0.1984    1.1116 H         1 <0>         0.1047
      6 S1         -3.5244   -1.5988   -0.7366 S.3       1 <0>        -0.2004
      7 C5         -3.6214   -2.9355    0.4723 C.3       1 <0>        -0.1194
      8 C6         -2.4536   -3.1329    1.3297 C.2       1 <0>         0.5323
      9 O1         -2.7022   -3.6340    2.4058 O.2       1 <0>        -0.5484
     10 N1         -1.1818   -2.8630    1.1386 N.am      1 <0>        -0.7021
     11 C7         -0.6316   -2.1989   -0.0356 C.3       1 <0>         0.4155
     12 H2         -0.9672   -2.6854   -0.9515 H         1 <0>         0.1338
     13 N2          0.8361   -2.1346    0.0353 N.pl3     1 <0>        -0.3328
     14 N3          1.1568   -0.7682   -0.0136 N.pl3     1 <0>        -0.5209
     15 C8          1.6943   -3.1710    0.1236 C.2       1 <0>         0.5291
     16 N4          1.2620   -4.4190    0.1508 N.2       1 <0>        -0.6513
     17 C9          2.0558   -5.4740    0.3012 C.2       1 <0>         0.4549
     18 N5          3.3003   -5.3702    0.7530 N.2       1 <0>        -0.5540
     19 C10         3.7355   -4.1355    0.9837 C.2       1 <0>         0.3904
     20 N6          4.5650   -3.6079    1.8332 N.2       1 <0>        -0.5331
     21 C11         4.4025   -2.2806    1.9120 C.2       1 <0>         0.3179
     22 N7          3.5829   -1.8097    1.0137 N.2       1 <0>        -0.5435
     23 C12         3.1816   -2.9507    0.1888 C.3       1 <0>        -0.0705
     24 H3          3.6140   -2.9054   -0.8108 H         1 <0>         0.1758
     25 C13        -2.6892    1.0020   -0.6536 C.ar      1 <0>        -0.0732
     26 C14        -2.3859    1.0894   -2.0001 C.ar      1 <0>        -0.0758
     27 C15        -2.5378    2.2887   -2.6674 C.ar      1 <0>        -0.0987
     28 C16        -2.9966    3.4087   -1.9844 C.ar      1 <0>        -0.0733
     29 C17        -3.3009    3.3170   -0.6315 C.ar      1 <0>        -0.1311
     30 C18        -3.1514    2.1131    0.0280 C.ar      1 <0>        -0.0798
     31 S2         -3.1915    4.9413   -2.8316 S.3       1 <0>        -0.1128
     32 C19        -3.7988    6.0755   -1.5527 C.3       1 <0>        -0.1460
     33 H4          1.0042    1.8801    0.0026 H         1 <0>         0.0751
     34 H5         -0.5455    1.8639   -0.8728 H         1 <0>         0.1023
     35 H6         -0.5286    1.8543    0.9071 H         1 <0>         0.0927
     36 H7         -4.4823   -2.7476    1.1139 H         1 <0>         0.1294
     37 H8         -3.8042   -3.8649   -0.0671 H         1 <0>         0.1433
     38 H9         -0.5598   -3.1270    1.8347 H         1 <0>         0.4054
     39 H10         2.0578   -0.4108   -0.0502 H         1 <0>         0.4509
     40 H11         1.6747   -6.4520    0.0470 H         1 <0>         0.2185
     41 H12         4.8996   -1.6631    2.6455 H         1 <0>         0.2141
     42 H13        -2.0294    0.2186   -2.5303 H         1 <0>         0.1329
     43 H14        -2.3001    2.3563   -3.7188 H         1 <0>         0.1317
     44 H15        -3.6577    4.1853   -0.0975 H         1 <0>         0.1273
     45 H16        -3.3915    2.0401    1.0785 H         1 <0>         0.1288
     46 H17        -3.9518    7.0637   -1.9865 H         1 <0>         0.1110
     47 H18        -4.7430    5.7029   -1.1553 H         1 <0>         0.0857
     48 H19        -3.0666    6.1413   -0.7480 H         1 <0>         0.0852
@<TRIPOS>BOND
     1    1    2 1
     2    1   33 1
     3    1   34 1
     4    1   35 1
     5    2   14 1
     6    2    3 2
     7    3   11 1
     8    3    4 1
     9    4    5 1
    10    4    6 1
    11    4   25 1
    12    6    7 1
    13    7    8 1
    14    7   36 1
    15    7   37 1
    16    8    9 2
    17    8   10 am
    18   10   11 1
    19   10   38 1
    20   11   12 1
    21   11   13 1
    22   13   14 1
    23   13   15 1
    24   14   39 1
    25   15   23 1
    26   15   16 2
    27   16   17 1
    28   17   18 2
    29   17   40 1
    30   18   19 1
    31   19   23 1
    32   19   20 2
    33   20   21 1
    34   21   22 2
    35   21   41 1
    36   22   23 1
    37   23   24 1
    38   25   30 ar
    39   25   26 ar
    40   26   27 ar
    41   26   42 1
    42   27   28 ar
    43   27   43 1
    44   28   29 ar
    45   28   31 1
    46   29   30 ar
    47   29   44 1
    48   30   45 1
    49   31   32 1
    50   32   46 1
    51   32   47 1
    52   32   48 1
@<TRIPOS>MOLECULE
ZINC60240053
   63    65     0     0     0
SMALL
USER_CHARGES

@<TRIPOS>ATOM
      1 C1         -0.0187    1.5258    0.0104 C.3       1 <0>        -0.1669
      2 C2          0.0021   -0.0041    0.0020 C.3       1 <0>         0.1125
      3 N1          0.6878   -0.4765   -1.2033 N.am      1 <0>        -0.7313
      4 C3          0.8268   -1.7986   -1.4250 C.2       1 <0>         0.5199
      5 O1          0.3843   -2.5972   -0.6267 O.2       1 <0>        -0.5324
      6 C4          1.5322   -2.2846   -2.6649 C.3       1 <0>        -0.1227
      7 H1          1.0054   -1.9238   -3.5483 H         1 <0>         0.1028
      8 C5          1.5547   -3.8148   -2.6731 C.3       1 <0>        -0.1011
      9 C6          2.2419   -4.3098   -3.9479 C.3       1 <0>        -0.1363
     10 C7          3.6879   -3.8048   -3.9727 C.3       1 <0>         0.1000
     11 N2          3.6813   -2.3436   -3.8192 N.am      1 <0>        -0.6068
     12 C8          2.9700   -1.7560   -2.6756 C.3       1 <0>         0.1241
     13 C9          4.3157   -1.5566   -4.7105 C.2       1 <0>         0.5073
     14 O2          4.3029   -0.3517   -4.5727 O.2       1 <0>        -0.5256
     15 C10         5.0411   -2.1737   -5.8785 C.3       1 <0>         0.1000
     16 N3          5.6426   -1.1166   -6.6931 N.am      1 <0>        -0.5679
     17 C11         5.0337   -0.5255   -7.7444 C.2       1 <0>         0.5408
     18 O3          4.0048   -0.8843   -8.2735 O.2       1 <0>        -0.4507
     19 C12         5.9083    0.6513   -8.1045 C.3       1 <0>         0.1397
     20 C13         6.2210    0.6607   -9.5929 C.3       1 <0>        -0.1075
     21 C14         4.9819    1.0782  -10.3855 C.3       1 <0>        -0.0960
     22 H2          4.1636    0.3909  -10.1858 H         1 <0>         0.0910
     23 C15         4.5969    2.4985   -9.9769 C.3       1 <0>        -0.1037
     24 C16         4.2475    2.5661   -8.4946 C.3       1 <0>        -0.0540
     25 C17         5.3271    1.9619   -7.6129 C.3       1 <0>        -0.1045
     26 C18         2.8980    1.8884   -8.2413 C.3       1 <0>        -0.1575
     27 C19         4.0967    4.0548   -8.1141 C.3       1 <0>        -0.1453
     28 C20         5.3058    1.0512  -11.8827 C.3       1 <0>        -0.1463
     29 N4          7.1562    0.3773   -7.3562 N.am      1 <0>        -0.7241
     30 C21         6.8755   -0.6291   -6.5099 C.2       1 <0>         0.7106
     31 O4          7.6511   -1.0492   -5.6738 O.2       1 <0>        -0.5397
     32 H3          1.0039    1.9031    0.0027 H         1 <0>         0.0627
     33 H4         -0.5459    1.8868   -0.8726 H         1 <0>         0.0622
     34 H5         -0.5289    1.8773    0.9072 H         1 <0>         0.0758
     35 H6          0.5293   -0.3651    0.8851 H         1 <0>         0.0687
     36 H7         -1.0205   -0.3814    0.0098 H         1 <0>         0.0684
     37 H8          1.0417    0.1622   -1.8418 H         1 <0>         0.4018
     38 H9          2.1026   -4.1746   -1.8022 H         1 <0>         0.0754
     39 H10         0.5330   -4.1932   -2.6410 H         1 <0>         0.0781
     40 H11         2.2367   -5.3996   -3.9643 H         1 <0>         0.0868
     41 H12         1.7088   -3.9298   -4.8195 H         1 <0>         0.0714
     42 H13         4.2466   -4.2559   -3.1527 H         1 <0>         0.0804
     43 H14         4.1514   -4.0702   -4.9229 H         1 <0>         0.0877
     44 H15         2.9594   -0.6702   -2.7699 H         1 <0>         0.0973
     45 H16         3.4705   -2.0396   -1.7497 H         1 <0>         0.0771
     46 H17         5.8229   -2.8382   -5.5106 H         1 <0>         0.1283
     47 H18         4.3360   -2.7426   -6.4845 H         1 <0>         0.1279
     48 H19         7.0318    1.3638   -9.7912 H         1 <0>         0.0860
     49 H20         6.5316   -0.3380   -9.9063 H         1 <0>         0.0743
     50 H21         5.4345    3.1704  -10.1829 H         1 <0>         0.0649
     51 H22         3.7375    2.8235  -10.5689 H         1 <0>         0.0697
     52 H23         4.9133    1.8055   -6.6045 H         1 <0>         0.0780
     53 H24         6.1450    2.6905   -7.5043 H         1 <0>         0.0843
     54 H25         2.9524    0.8441   -8.5490 H         1 <0>         0.0756
     55 H26         2.6580    1.9423   -7.1795 H         1 <0>         0.0515
     56 H27         2.1230    2.3963   -8.8153 H         1 <0>         0.0565
     57 H28         3.3029    4.5038   -8.7111 H         1 <0>         0.0595
     58 H29         3.8460    4.1359   -7.0564 H         1 <0>         0.0555
     59 H30         5.0347    4.5757   -8.3062 H         1 <0>         0.0553
     60 H31         5.6016    0.0428  -12.1723 H         1 <0>         0.0557
     61 H32         4.4242    1.3484  -12.4505 H         1 <0>         0.0594
     62 H33         6.1221    1.7430  -12.0903 H         1 <0>         0.0554
     63 H34         7.9986    0.8399   -7.4655 H         1 <0>         0.4402
@<TRIPOS>BOND
     1    1    2 1
     2    1   32 1
     3    1   33 1
     4    1   34 1
     5    2    3 1
     6    2   35 1
     7    2   36 1
     8    3    4 am
     9    3   37 1
    10    4    5 2
    11    4    6 1
    12    6    7 1
    13    6   12 1
    14    6    8 1
    15    8    9 1
    16    8   38 1
    17    8   39 1
    18    9   10 1
    19    9   40 1
    20    9   41 1
    21   10   11 1
    22   10   42 1
    23   10   43 1
    24   11   12 1
    25   11   13 am
    26   12   44 1
    27   12   45 1
    28   13   14 2
    29   13   15 1
    30   15   16 1
    31   15   46 1
    32   15   47 1
    33   16   30 am
    34   16   17 am
    35   17   18 2
    36   17   19 1
    37   19   25 1
    38   19   20 1
    39   19   29 1
    40   20   21 1
    41   20   48 1
    42   20   49 1
    43   21   22 1
    44   21   23 1
    45   21   28 1
    46   23   24 1
    47   23   50 1
    48   23   51 1
    49   24   25 1
    50   24   26 1
    51   24   27 1
    52   25   52 1
    53   25   53 1
    54   26   54 1
    55   26   55 1
    56   26   56 1
    57   27   57 1
    58   27   58 1
    59   27   59 1
    60   28   60 1
    61   28   61 1
    62   28   62 1
    63   29   30 am
    64   29   63 1
    65   30   31 2
@<TRIPOS>MOLECULE
ZINC04705964
   31    32     0     0     0
SMALL
USER_CHARGES
[5-(3,5-dioxo-1,2,4-triazin-2-yl)-3,4-dihydroxy-tetrahydrofuran-2-yl]methoxyphosphonic acid
@<TRIPOS>ATOM
      1 C1          1.1074    3.1211    0.0078 C.2       1 <0>         0.0268
      2 C2          1.1482    1.6559   -0.0000 C.2       1 <0>         0.5276
      3 O1          2.2144    1.0692   -0.0133 O.2       1 <0>        -0.4976
      4 N1         -0.0111    0.9658    0.0074 N.am      1 <0>        -0.6599
      5 H1          0.0025   -0.0341    0.0061 H         1 <0>         0.4364
      6 C3         -1.1861    1.6227    0.0165 C.2       1 <0>         0.6890
      7 O2         -2.2252    0.9912    0.0180 O.2       1 <0>        -0.5386
      8 N2         -1.2281    2.9669    0.0288 N.am      1 <0>        -0.4317
      9 N3         -0.0495    3.7225    0.0216 N.2       1 <0>        -0.1357
     10 C4         -2.5242    3.6495    0.0449 C.3       1 <0>         0.3155
     11 H2         -3.3217    2.9428    0.2743 H         1 <0>         0.1591
     12 C5         -2.5130    4.8007    1.0750 C.3       1 <0>         0.0478
     13 H3         -3.4972    4.9166    1.5289 H         1 <0>         0.0968
     14 C6         -2.1483    6.0484    0.2398 C.3       1 <0>         0.0512
     15 H4         -1.2141    6.4847    0.5931 H         1 <0>         0.0891
     16 C7         -1.9823    5.5035   -1.1961 C.3       1 <0>         0.0792
     17 H5         -0.9346    5.2818   -1.3990 H         1 <0>         0.0983
     18 O3         -2.7694    4.2929   -1.2247 O.3       1 <0>        -0.3231
     19 C8         -2.5191    6.5119   -2.2138 C.3       1 <0>         0.1471
     20 O4         -2.2513    6.0422   -3.5366 O.3       1 <0>        -0.7587
     21 P1         -2.6789    6.8549   -4.8590 P.3       1 <0>         2.1356
     22 O5         -4.1316    7.1351   -4.8178 O.2       1 <0>        -1.1650
     23 O6         -3.2017    7.0125    0.2938 O.3       1 <0>        -0.5356
     24 O7         -1.5246    4.5641    2.0795 O.3       1 <0>        -0.5454
     25 H6          2.0227    3.6944    0.0024 H         1 <0>         0.2206
     26 H7         -3.5947    6.6261   -2.0796 H         1 <0>         0.0533
     27 H8         -2.0300    7.4745   -2.0642 H         1 <0>         0.0522
     28 H9         -3.3871    7.3431    1.1834 H         1 <0>         0.3690
     29 H10        -1.4743    5.2565    2.7526 H         1 <0>         0.3795
     30 O8         -1.8661    8.2432   -4.9221 O.3       1 <0>        -1.2018
     31 O9         -2.3391    5.9743   -6.1634 O.3       1 <0>        -1.1811
@<TRIPOS>BOND
     1    1    9 2
     2    1    2 1
     3    1   25 1
     4    2    3 2
     5    2    4 am
     6    4    5 1
     7    4    6 am
     8    6    7 2
     9    6    8 am
    10    8    9 1
    11    8   10 1
    12   10   11 1
    13   10   18 1
    14   10   12 1
    15   12   13 1
    16   12   14 1
    17   12   24 1
    18   14   15 1
    19   14   16 1
    20   14   23 1
    21   16   17 1
    22   16   18 1
    23   16   19 1
    24   19   20 1
    25   19   26 1
    26   19   27 1
    27   20   21 1
    28   21   22 2
    29   21   30 1
    30   21   31 1
    31   23   28 1
    32   24   29 1
@<TRIPOS>MOLECULE
ZINC37454853
   34    36     0     0     0
SMALL
USER_CHARGES

@<TRIPOS>ATOM
      1 C1         -0.0187    1.5258    0.0104 C.3       1 <0>        -0.1876
      2 C2          1.3165    0.7789   -0.0063 C.3       1 <0>        -0.1917
      3 C3          0.0021   -0.0041    0.0020 C.3       1 <0>         0.0827
      4 N1         -0.3911   -0.6791   -1.2373 N.am      1 <0>        -0.5839
      5 C4         -1.5206   -1.6092   -1.3513 C.3       1 <0>         0.1194
      6 C5         -1.8158   -1.7157   -2.8639 C.3       1 <0>        -0.1211
      7 H1         -2.1146   -2.7289   -3.1326 H         1 <0>         0.1246
      8 C6         -0.4417   -1.3625   -3.4789 C.3       1 <0>        -0.1520
      9 C7          0.2329   -0.5218   -2.4175 C.2       1 <0>         0.5217
     10 O1          1.1979    0.1888   -2.6037 O.2       1 <0>        -0.5309
     11 C8         -2.8662   -0.7184   -3.2800 C.2       1 <0>         0.5384
     12 O2         -3.3545    0.0269   -2.4572 O.2       1 <0>        -0.5059
     13 N2         -3.2629   -0.6547   -4.5664 N.am      1 <0>        -0.5860
     14 C9         -2.6976   -1.5491   -5.6001 C.3       1 <0>         0.1602
     15 S1         -3.0407   -0.5833   -7.1368 S.3       1 <0>        -0.3195
     16 C10        -4.5796    0.2385   -6.5259 C.3       1 <0>        -0.0194
     17 C11        -4.2725    0.2922   -5.0089 C.3       1 <0>         0.0543
     18 H2         -3.9343    1.2987   -4.7628 H         1 <0>         0.0797
     19 C12        -5.5459    0.0233   -4.2491 C.2       1 <0>         0.5016
     20 O3         -6.4759    0.8085   -4.3206 O.co2     1 <0>        -0.6912
     21 O4         -5.6463   -0.9795   -3.5630 O.co2     1 <0>        -0.6726
     22 H3         -0.3072    2.0201    0.9381 H         1 <0>         0.0993
     23 H4         -0.3248    2.0300   -0.9061 H         1 <0>         0.0953
     24 H5          1.8888    0.7918   -0.9339 H         1 <0>         0.1299
     25 H6          1.9064    0.7818    0.9103 H         1 <0>         0.0947
     26 H7         -0.2728   -0.5162    0.9241 H         1 <0>         0.1294
     27 H8         -1.2474   -2.5853   -0.9507 H         1 <0>         0.0820
     28 H9         -2.3892   -1.2141   -0.8244 H         1 <0>         0.1026
     29 H10         0.1323   -2.2680   -3.6757 H         1 <0>         0.1173
     30 H11        -0.5706   -0.7849   -4.3943 H         1 <0>         0.1086
     31 H12        -1.6262   -1.6877   -5.4552 H         1 <0>         0.1107
     32 H13        -3.2165   -2.5075   -5.6154 H         1 <0>         0.0935
     33 H14        -4.6885    1.2382   -6.9463 H         1 <0>         0.1168
     34 H15        -5.4606   -0.3712   -6.7263 H         1 <0>         0.0987
@<TRIPOS>BOND
     1    1    3 1
     2    1    2 1
     3    1   22 1
     4    1   23 1
     5    2    3 1
     6    2   24 1
     7    2   25 1
     8    3    4 1
     9    3   26 1
    10    4    9 am
    11    4    5 1
    12    5    6 1
    13    5   27 1
    14    5   28 1
    15    6    7 1
    16    6    8 1
    17    6   11 1
    18    8    9 1
    19    8   29 1
    20    8   30 1
    21    9   10 2
    22   11   12 2
    23   11   13 am
    24   13   17 1
    25   13   14 1
    26   14   15 1
    27   14   31 1
    28   14   32 1
    29   15   16 1
    30   16   17 1
    31   16   33 1
    32   16   34 1
    33   17   18 1
    34   17   19 1
    35   19   20 2
    36   19   21 1
@<TRIPOS>MOLECULE
ZINC37993785
   33    33     0     0     0
SMALL
USER_CHARGES

@<TRIPOS>ATOM
      1 C1         -0.4320    1.7958    0.2939 C.3       1 <0>        -0.1651
      2 C2         -0.2101    0.3666   -0.2053 C.3       1 <0>         0.1528
      3 C3          0.8543   -0.3151    0.6568 C.3       1 <0>        -0.1672
      4 N1         -1.4656   -0.3829   -0.1144 N.am      1 <0>        -0.5691
      5 C4         -2.0899   -0.9160   -1.3278 C.3       1 <0>         0.0255
      6 C5         -1.5045   -2.2689   -1.6411 C.2       1 <0>         0.4784
      7 O1         -0.6455   -2.7437   -0.9178 O.co2     1 <0>        -0.6728
      8 O2         -1.8900   -2.8885   -2.6178 O.co2     1 <0>        -0.6960
      9 C6         -2.0463   -0.5819    1.0854 C.2       1 <0>         0.5365
     10 O3         -1.5830   -0.0602    2.0774 O.2       1 <0>        -0.5510
     11 C7         -3.2714   -1.4527    1.1944 C.3       1 <0>        -0.1142
     12 H1         -3.8638   -1.3593    0.2842 H         1 <0>         0.1102
     13 C8         -2.8418   -2.9180    1.3758 C.3       1 <0>        -0.1228
     14 C9         -4.0928   -3.7410    1.7963 C.3       1 <0>        -0.5635
     15 S1         -4.8865   -2.5690    2.9759 S.o2      1 <0>         2.3663
     16 O4         -4.4303   -2.8565    4.2906 O.2       1 <0>        -0.9403
     17 O5         -6.2825   -2.5243    2.7143 O.2       1 <0>        -0.9473
     18 C10        -4.1184   -0.9985    2.4075 C.3       1 <0>        -0.5651
     19 H2          0.4666    2.3865    0.1159 H         1 <0>         0.0568
     20 H3         -1.2713    2.2410   -0.2405 H         1 <0>         0.0479
     21 H4         -0.6496    1.7780    1.3618 H         1 <0>         0.0757
     22 H5          0.1238    0.3917   -1.2425 H         1 <0>         0.0784
     23 H6          0.5621   -0.2607    1.7055 H         1 <0>         0.0683
     24 H7          0.9483   -1.3596    0.3596 H         1 <0>         0.0779
     25 H8          1.8108    0.1892    0.5195 H         1 <0>         0.0496
     26 H9         -3.1643   -1.0123   -1.1714 H         1 <0>         0.0784
     27 H10        -1.9033   -0.2377   -2.1605 H         1 <0>         0.0768
     28 H11        -2.4455   -3.3043    0.4367 H         1 <0>         0.1285
     29 H12        -2.0793   -2.9847    2.1518 H         1 <0>         0.0914
     30 H13        -4.7399   -3.9390    0.9418 H         1 <0>         0.1397
     31 H14        -3.8061   -4.6674    2.2940 H         1 <0>         0.1417
     32 H15        -3.4833   -0.5749    3.1855 H         1 <0>         0.1547
     33 H16        -4.8826   -0.2847    2.0998 H         1 <0>         0.1390
@<TRIPOS>BOND
     1    1    2 1
     2    1   19 1
     3    1   20 1
     4    1   21 1
     5    2    3 1
     6    2    4 1
     7    2   22 1
     8    3   23 1
     9    3   24 1
    10    3   25 1
    11    4    5 1
    12    4    9 am
    13    5    6 1
    14    5   26 1
    15    5   27 1
    16    6    7 2
    17    6    8 1
    18    9   10 2
    19    9   11 1
    20   11   12 1
    21   11   18 1
    22   11   13 1
    23   13   14 1
    24   13   28 1
    25   13   29 1
    26   14   15 1
    27   14   30 1
    28   14   31 1
    29   15   16 2
    30   15   17 2
    31   15   18 1
    32   18   32 1
    33   18   33 1
@<TRIPOS>MOLECULE
ZINC44390585
   34    34     0     0     0
SMALL
USER_CHARGES

@<TRIPOS>ATOM
      1 C1         -1.2864    1.7578    0.1417 C.3       1 <0>        -0.1447
      2 C2         -0.6804    0.3579    0.0236 C.3       1 <0>        -0.1410
      3 C3         -1.7936   -0.6884    0.1079 C.3       1 <0>         0.1468
      4 N1         -1.2134   -2.0289   -0.0051 N.am      1 <0>        -0.5947
      5 C4         -0.7844   -2.7453    1.1986 C.3       1 <0>        -0.0129
      6 C5         -1.9917   -3.1067    2.0250 C.2       1 <0>         0.4791
      7 O1         -3.1070   -2.7948    1.6439 O.co2     1 <0>        -0.6758
      8 O2         -1.8531   -3.7111    3.0748 O.co2     1 <0>        -0.6920
      9 C6         -1.0742   -2.6030   -1.2165 C.2       1 <0>         0.7114
     10 O3         -1.1300   -1.9218   -2.2221 O.2       1 <0>        -0.5999
     11 N2         -0.8732   -3.9322   -1.3133 N.am      1 <0>        -0.6396
     12 C7         -1.1415   -4.7899   -0.1580 C.3       1 <0>         0.0875
     13 C8          0.1721   -5.4057    0.3372 C.3       1 <0>        -0.4583
     14 S1          0.9396   -6.3190   -1.0348 S.o       1 <0>         1.2353
     15 O4          2.2586   -6.7015   -0.6698 O.2       1 <0>        -0.8596
     16 C9          1.0136   -5.0818   -2.3650 C.3       1 <0>        -0.4582
     17 C10        -0.3948   -4.5011   -2.5742 C.3       1 <0>         0.1515
     18 H1         -0.4934    2.5032    0.0816 H         1 <0>         0.0499
     19 H2         -1.9961    1.9161   -0.6703 H         1 <0>         0.0542
     20 H3         -1.8014    1.8514    1.0978 H         1 <0>         0.0542
     21 H4         -0.1655    0.2643   -0.9325 H         1 <0>         0.0634
     22 H5          0.0293    0.1995    0.8356 H         1 <0>         0.0552
     23 H6         -2.3085   -0.5949    1.0640 H         1 <0>         0.0835
     24 H7         -2.5033   -0.5301   -0.7041 H         1 <0>         0.0707
     25 H8         -0.2554   -3.6540    0.9115 H         1 <0>         0.1177
     26 H9         -0.1211   -2.1082    1.7836 H         1 <0>         0.0605
     27 H10        -1.5878   -4.1959    0.6397 H         1 <0>         0.1485
     28 H11        -1.8291   -5.5846   -0.4474 H         1 <0>         0.0843
     29 H12         0.8437   -4.6148    0.6713 H         1 <0>         0.0971
     30 H13        -0.0320   -6.0883    1.1621 H         1 <0>         0.1323
     31 H14         1.7021   -4.2844   -2.0850 H         1 <0>         0.0862
     32 H15         1.3534   -5.5550   -3.2862 H         1 <0>         0.1215
     33 H16        -1.0723   -5.2920   -2.8961 H         1 <0>         0.0845
     34 H17        -0.3596   -3.7210   -3.3346 H         1 <0>         0.1012
@<TRIPOS>BOND
     1    1    2 1
     2    1   18 1
     3    1   19 1
     4    1   20 1
     5    2    3 1
     6    2   21 1
     7    2   22 1
     8    3    4 1
     9    3   23 1
    10    3   24 1
    11    4    5 1
    12    4    9 am
    13    5    6 1
    14    5   25 1
    15    5   26 1
    16    6    7 2
    17    6    8 1
    18    9   10 2
    19    9   11 am
    20   11   17 1
    21   11   12 1
    22   12   13 1
    23   12   27 1
    24   12   28 1
    25   13   14 1
    26   13   29 1
    27   13   30 1
    28   14   15 2
    29   14   16 1
    30   16   17 1
    31   16   31 1
    32   16   32 1
    33   17   33 1
    34   17   34 1
@<TRIPOS>MOLECULE
ZINC54052800
   33    33     0     0     0
SMALL
USER_CHARGES

@<TRIPOS>ATOM
      1 C1         -0.0187    1.5258    0.0104 C.3       1 <0>        -0.1377
      2 C2          0.0021   -0.0041    0.0020 C.3       1 <0>         0.0614
      3 H1          0.5123   -0.3556   -0.8948 H         1 <0>         0.0951
      4 C3          0.7309   -0.5033    1.2229 C.2       1 <0>         0.4936
      5 O1          0.1165   -0.7205    2.2534 O.co2     1 <0>        -0.6862
      6 O2          1.9350   -0.6899    1.1802 O.co2     1 <0>        -0.6893
      7 N1         -1.3723   -0.5112    0.0124 N.am      1 <0>        -0.5763
      8 C4         -2.2686   -0.1755    1.1216 C.3       1 <0>         0.0633
      9 C5         -1.8122   -1.2865   -0.9984 C.2       1 <0>         0.5006
     10 O3         -1.0703   -1.5644   -1.9167 O.2       1 <0>        -0.5575
     11 C6         -3.2260   -1.8081   -0.9877 C.3       1 <0>        -0.1243
     12 C7         -3.4668   -2.6546   -2.2393 C.3       1 <0>        -0.0810
     13 H2         -2.7086   -3.4347   -2.3075 H         1 <0>         0.1055
     14 C8         -3.4071   -1.7615   -3.4897 C.3       1 <0>        -0.1259
     15 C9         -3.9594   -2.5304   -4.7141 C.3       1 <0>        -0.5718
     16 S1         -5.1499   -3.7055   -3.9498 S.o2      1 <0>         2.3660
     17 O4         -4.7088   -5.0342   -4.1933 O.2       1 <0>        -0.9406
     18 O5         -6.4704   -3.3291   -4.3153 O.2       1 <0>        -0.9469
     19 C10        -4.8803   -3.3002   -2.1729 C.3       1 <0>        -0.5720
     20 H3          1.0039    1.9031    0.0027 H         1 <0>         0.0641
     21 H4         -0.5459    1.8868   -0.8726 H         1 <0>         0.0440
     22 H5         -0.5289    1.8773    0.9072 H         1 <0>         0.0540
     23 H6         -2.8038    0.7455    0.8903 H         1 <0>         0.0377
     24 H7         -2.9842   -0.9845    1.2681 H         1 <0>         0.0562
     25 H8         -1.6846   -0.0376    2.0316 H         1 <0>         0.1181
     26 H9         -3.3806   -2.4207   -0.0995 H         1 <0>         0.1012
     27 H10        -3.9225   -0.9697   -0.9766 H         1 <0>         0.0959
     28 H11        -4.0064   -0.8663   -3.3240 H         1 <0>         0.0806
     29 H12        -2.3731   -1.4735   -3.6795 H         1 <0>         0.1154
     30 H13        -4.4704   -1.8525   -5.3978 H         1 <0>         0.1374
     31 H14        -3.1607   -3.0674   -5.2258 H         1 <0>         0.1380
     32 H15        -4.8736   -4.2015   -1.5599 H         1 <0>         0.1417
     33 H16        -5.6228   -2.5874   -1.8140 H         1 <0>         0.1395
@<TRIPOS>BOND
     1    1    2 1
     2    1   20 1
     3    1   21 1
     4    1   22 1
     5    2    3 1
     6    2    4 1
     7    2    7 1
     8    4    5 2
     9    4    6 1
    10    7    8 1
    11    7    9 am
    12    8   23 1
    13    8   24 1
    14    8   25 1
    15    9   10 2
    16    9   11 1
    17   11   12 1
    18   11   26 1
    19   11   27 1
    20   12   13 1
    21   12   19 1
    22   12   14 1
    23   14   15 1
    24   14   28 1
    25   14   29 1
    26   15   16 1
    27   15   30 1
    28   15   31 1
    29   16   17 2
    30   16   18 2
    31   16   19 1
    32   19   32 1
    33   19   33 1
@<TRIPOS>MOLECULE
ZINC04177420
   38    41     0     0     0
SMALL
USER_CHARGES
4-benzo[1,3]dioxol-5-yl-2-(trifluoromethyl)-1,5,9-triazabicyclo[4.3.0]nona-6,8-diene-7-carboxamide
@<TRIPOS>ATOM
      1 C1          6.0041    1.7365   -0.9932 C.ar      1 <0>        -0.0941
      2 C2          7.3621    1.8591   -1.2236 C.ar      1 <0>        -0.0923
      3 C3          8.1677    2.4979   -0.2956 C.ar      1 <0>         0.0419
      4 C4          7.6053    3.0206    0.8669 C.ar      1 <0>         0.0381
      5 C5          6.2436    2.8985    1.0886 C.ar      1 <0>        -0.0829
      6 C6          5.4454    2.2597    0.1575 C.ar      1 <0>        -0.0775
      7 C7          3.9640    2.1282    0.4011 C.3       1 <0>         0.1302
      8 H1          3.7583    2.2558    1.4639 H         1 <0>         0.1155
      9 C8          3.2183    3.2036   -0.3958 C.3       1 <0>        -0.1710
     10 C9          1.7355    3.1768    0.0023 C.3       1 <0>         0.1227
     11 H2          1.6131    3.6010    0.9989 H         1 <0>         0.1422
     12 N1          1.2958    1.7755   -0.0008 N.pl3     1 <0>        -0.3964
     13 C10         2.1366    0.7179   -0.0148 C.2       1 <0>         0.3466
     14 C11         1.3531   -0.4288   -0.0133 C.2       1 <0>        -0.2915
     15 C12         0.0021   -0.0041    0.0020 C.2       1 <0>         0.1018
     16 N2         -0.0156    1.3003    0.0092 N.2       1 <0>        -0.2743
     17 C13         1.8334   -1.8157   -0.0246 C.2       1 <0>         0.5995
     18 O1          3.0283   -2.0457   -0.0370 O.2       1 <0>        -0.5374
     19 N3          0.9510   -2.8344   -0.0212 N.am      1 <0>        -0.8539
     20 N4          3.5133    0.7957   -0.0286 N.pl3     1 <0>        -0.5707
     21 C14         0.9133    3.9802   -1.0073 C.3       1 <0>         0.4572
     22 F1          1.0606    3.4192   -2.2804 F         1 <0>        -0.1735
     23 F2         -0.4358    3.9514   -0.6383 F         1 <0>        -0.1585
     24 F3          1.3633    5.3048   -1.0265 F         1 <0>        -0.1700
     25 O2          8.5959    3.5932    1.6112 O.3       1 <0>        -0.3059
     26 C15         9.7003    3.7764    0.7057 C.3       1 <0>         0.2127
     27 O3          9.5103    2.7432   -0.2790 O.3       1 <0>        -0.3058
     28 H3          5.3781    1.2343   -1.7160 H         1 <0>         0.1351
     29 H4          7.7954    1.4526   -2.1255 H         1 <0>         0.1417
     30 H5          5.8050    3.3028    1.9889 H         1 <0>         0.1403
     31 H6          3.6395    4.1832   -0.1701 H         1 <0>         0.1259
     32 H7          3.3158    3.0011   -1.4624 H         1 <0>         0.0994
     33 H8         -0.8642   -0.6490    0.0072 H         1 <0>         0.1981
     34 H9         -0.0014   -2.6510   -0.0113 H         1 <0>         0.3986
     35 H10         1.2684   -3.7510   -0.0287 H         1 <0>         0.4056
     36 H11         3.8793    0.5669   -0.9406 H         1 <0>         0.3797
     37 H12         9.6551    4.7614    0.2409 H         1 <0>         0.0876
     38 H13        10.6486    3.6429    1.2262 H         1 <0>         0.1353
@<TRIPOS>BOND
     1    1    6 ar
     2    1    2 ar
     3    1   28 1
     4    2    3 ar
     5    2   29 1
     6    3   27 1
     7    3    4 ar
     8    4    5 ar
     9    4   25 1
    10    5    6 ar
    11    5   30 1
    12    6    7 1
    13    7    8 1
    14    7   20 1
    15    7    9 1
    16    9   10 1
    17    9   31 1
    18    9   32 1
    19   10   11 1
    20   10   12 1
    21   10   21 1
    22   12   16 1
    23   12   13 1
    24   13   14 2
    25   13   20 1
    26   14   15 1
    27   14   17 1
    28   15   16 2
    29   15   33 1
    30   17   18 2
    31   17   19 am
    32   19   34 1
    33   19   35 1
    34   20   36 1
    35   21   22 1
    36   21   23 1
    37   21   24 1
    38   25   26 1
    39   26   27 1
    40   26   37 1
    41   26   38 1
@<TRIPOS>MOLECULE
ZINC28678952
   39    41     0     0     0
SMALL
USER_CHARGES
N-(2-fluoro-5-methyl-phenyl)-2,4-dioxo-1,5-dihydro-1,5-benzodiazepine-7-sulfonamide
@<TRIPOS>ATOM
      1 C1          4.3477    5.4585   -4.7046 C.3       1 <0>        -0.1224
      2 C2          4.9296    4.1768   -4.1666 C.ar      1 <0>        -0.0618
      3 C3          5.0730    3.0813   -4.9981 C.ar      1 <0>        -0.1065
      4 C4          5.6065    1.9029   -4.5091 C.ar      1 <0>        -0.1248
      5 C5          6.0046    1.8190   -3.1875 C.ar      1 <0>         0.0734
      6 C6          5.8560    2.9177   -2.3479 C.ar      1 <0>         0.1341
      7 C7          5.3195    4.0983   -2.8435 C.ar      1 <0>        -0.1584
      8 N1          6.2515    2.8353   -1.0091 N.pl3     1 <0>        -1.0643
      9 S1          5.3914    3.6343    0.1590 S.o2      1 <0>         2.6967
     10 O1          5.3064    4.9908   -0.2556 O.2       1 <0>        -0.9429
     11 O2          5.9517    3.2531    1.4080 O.2       1 <0>        -0.9405
     12 C8          3.7501    2.9941    0.1270 C.ar      1 <0>        -0.6702
     13 C9          3.4150    1.9073    0.9140 C.ar      1 <0>        -0.0042
     14 C10         2.1301    1.4102    0.8867 C.ar      1 <0>        -0.1375
     15 C11         1.1568    1.9917    0.0707 C.ar      1 <0>         0.1961
     16 C12         1.4926    3.0799   -0.7181 C.ar      1 <0>         0.1145
     17 C13         2.7981    3.5757   -0.6818 C.ar      1 <0>        -0.0102
     18 N2          0.5978    3.7272   -1.5648 N.am      1 <0>        -0.6744
     19 C14        -0.6698    4.0141   -1.2793 C.2       1 <0>         0.5271
     20 O3         -1.3404    4.6183   -2.0895 O.2       1 <0>        -0.5108
     21 C15        -1.2878    3.6018    0.0317 C.3       1 <0>        -0.1718
     22 C16        -1.2624    2.0967    0.1085 C.2       1 <0>         0.5294
     23 O4         -2.3086    1.4867    0.1766 O.2       1 <0>        -0.5068
     24 N3         -0.1136    1.4248    0.1061 N.am      1 <0>        -0.6784
     25 F1          6.5318    0.6699   -2.7113 F         1 <0>        -0.1340
     26 H1          4.0991    5.3301   -5.7684 H         1 <0>         0.0722
     27 H2          5.0829    6.2693   -4.5951 H         1 <0>         0.0786
     28 H3          3.4364    5.7116   -4.1430 H         1 <0>         0.0754
     29 H4          4.7672    3.1461   -6.0319 H         1 <0>         0.1369
     30 H5          5.7168    1.0491   -5.1612 H         1 <0>         0.1414
     31 H6          5.2072    4.9549   -2.1954 H         1 <0>         0.1696
     32 H7          7.1338    2.2398   -0.7319 H         1 <0>         0.4608
     33 H8          4.1590    1.4488    1.5485 H         1 <0>         0.1535
     34 H9          1.8727    0.5613    1.5028 H         1 <0>         0.1491
     35 H10         3.0642    4.4243   -1.2945 H         1 <0>         0.1524
     36 H11         0.9217    4.0478   -2.5660 H         1 <0>         0.4411
     37 H12        -0.7091    4.0335    0.8617 H         1 <0>         0.1273
     38 H13        -2.3246    3.9663    0.0791 H         1 <0>         0.1458
     39 H14        -0.2272    0.3311    0.1353 H         1 <0>         0.4444
@<TRIPOS>BOND
     1    1    2 1
     2    1   26 1
     3    1   27 1
     4    1   28 1
     5    2    7 ar
     6    2    3 ar
     7    3    4 ar
     8    3   29 1
     9    4    5 ar
    10    4   30 1
    11    5    6 ar
    12    5   25 1
    13    6    7 ar
    14    6    8 1
    15    7   31 1
    16    8    9 1
    17    8   32 1
    18    9   10 2
    19    9   11 2
    20    9   12 1
    21   12   17 ar
    22   12   13 ar
    23   13   14 ar
    24   13   33 1
    25   14   15 ar
    26   14   34 1
    27   15   24 1
    28   15   16 ar
    29   16   17 ar
    30   16   18 1
    31   17   35 1
    32   18   19 am
    33   18   36 1
    34   19   20 2
    35   19   21 1
    36   21   22 1
    37   21   37 1
    38   21   38 1
    39   22   23 2
    40   22   24 am
    41   24   39 1
@<TRIPOS>MOLECULE
ZINC56092373
   40    41     0     0     0
SMALL
USER_CHARGES

@<TRIPOS>ATOM
      1 C1         -0.0290    1.5318    0.0181 C.3       1 <0>        -0.1634
      2 C2         -0.0002    0.0021    0.0028 C.3       1 <0>         0.1862
      3 C3          0.7440   -0.5063    1.2392 C.3       1 <0>        -0.1539
      4 C4         -1.4112   -0.5271    0.0128 C.2       1 <0>         0.5198
      5 O1         -1.9356   -0.8360    1.0620 O.2       1 <0>        -0.4925
      6 N1         -2.0903   -0.6571   -1.1440 N.am      1 <0>        -0.6754
      7 C5         -3.3648   -1.2393   -1.1466 C.ar      1 <0>         0.1851
      8 C6         -3.7653   -2.0286   -2.2168 C.ar      1 <0>        -0.1538
      9 C7         -5.0207   -2.6023   -2.2196 C.ar      1 <0>        -0.0273
     10 C8         -5.8838   -2.3901   -1.1516 C.ar      1 <0>        -0.1745
     11 C9         -5.4827   -1.6004   -0.0811 C.ar      1 <0>        -0.0279
     12 C10        -4.2251   -1.0316   -0.0763 C.ar      1 <0>        -0.1302
     13 S1         -7.4866   -3.1218   -1.1551 S.3       1 <0>         0.1660
     14 C11        -7.2758   -4.6146   -0.2431 C.2       1 <0>         0.0201
     15 N2         -6.1757   -5.1587    0.2617 N.2       1 <0>        -0.2822
     16 N3         -6.2044   -6.2478    0.8971 N.2       1 <0>        -0.2719
     17 C12        -7.3236   -6.9132    1.1001 C.2       1 <0>         0.0497
     18 S2         -8.4854   -5.8288    0.2754 S.3       1 <0>         0.0125
     19 N4          0.6866   -0.4613   -1.2054 N.am      1 <0>        -0.7459
     20 C13         1.9682   -0.1092   -1.4290 C.2       1 <0>         0.7089
     21 O2          2.5544    0.5930   -0.6280 O.2       1 <0>        -0.5750
     22 N5          2.6001   -0.5356   -2.5406 N.am      1 <0>        -0.7486
     23 C14         3.9931   -0.1529   -2.7836 C.3       1 <0>         0.1051
     24 H1          0.9915    1.9145    0.0109 H         1 <0>         0.0991
     25 H2         -0.5592    1.8940   -0.8627 H         1 <0>         0.0599
     26 H3         -0.5400    1.8766    0.9170 H         1 <0>         0.0749
     27 H4          0.2330   -0.1615    2.1382 H         1 <0>         0.0782
     28 H5          0.7645   -1.5961    1.2283 H         1 <0>         0.0593
     29 H6          1.7645   -0.1236    1.2320 H         1 <0>         0.0927
     30 H7         -1.6968   -0.3476   -1.9749 H         1 <0>         0.4132
     31 H8         -3.0945   -2.1932   -3.0470 H         1 <0>         0.1360
     32 H9         -5.3322   -3.2158   -3.0521 H         1 <0>         0.1396
     33 H10        -6.1533   -1.4352    0.7492 H         1 <0>         0.1370
     34 H11        -3.9116   -0.4214    0.7578 H         1 <0>         0.1484
     35 H12        -7.4925   -7.8449    1.6195 H         1 <0>         0.2412
     36 H13         0.2190   -1.0216   -1.8444 H         1 <0>         0.3941
     37 H14         2.1324   -1.0958   -3.1796 H         1 <0>         0.3977
     38 H15         4.0672    0.9332   -2.8388 H         1 <0>         0.0606
     39 H16         4.6179   -0.5187   -1.9689 H         1 <0>         0.0604
     40 H17         4.3307   -0.5883   -3.7241 H         1 <0>         0.0770
@<TRIPOS>BOND
     1    1    2 1
     2    1   24 1
     3    1   25 1
     4    1   26 1
     5    2    3 1
     6    2    4 1
     7    2   19 1
     8    3   27 1
     9    3   28 1
    10    3   29 1
    11    4    5 2
    12    4    6 am
    13    6    7 1
    14    6   30 1
    15    7   12 ar
    16    7    8 ar
    17    8    9 ar
    18    8   31 1
    19    9   10 ar
    20    9   32 1
    21   10   11 ar
    22   10   13 1
    23   11   12 ar
    24   11   33 1
    25   12   34 1
    26   13   14 1
    27   14   18 1
    28   14   15 2
    29   15   16 1
    30   16   17 2
    31   17   18 1
    32   17   35 1
    33   19   20 am
    34   19   36 1
    35   20   21 2
    36   20   22 am
    37   22   23 1
    38   22   37 1
    39   23   38 1
    40   23   39 1
    41   23   40 1
@<TRIPOS>MOLECULE
ZINC64365359
   42    45     0     0     0
SMALL
USER_CHARGES

@<TRIPOS>ATOM
      1 C1         -0.0345    1.5119   -0.0869 C.ar      1 <0>        -0.1318
      2 C2          1.1772    2.1842   -0.0825 C.ar      1 <0>        -0.0675
      3 C3          2.3591    1.4791   -0.0487 C.ar      1 <0>        -0.1481
      4 C4          2.3554    0.0821   -0.0190 C.ar      1 <0>         0.1754
      5 C5          1.1378   -0.5970   -0.0266 C.ar      1 <0>        -0.1507
      6 C6         -0.0593    0.1378   -0.0593 C.ar      1 <0>        -0.0456
      7 C7          1.0359   -2.0610   -0.0073 C.2       1 <0>         0.5577
      8 O1          0.1646   -2.5589    0.6792 O.2       1 <0>        -0.5263
      9 N1          1.8321   -2.8816   -0.6906 N.am      1 <0>        -0.6932
     10 C8          2.9174   -2.3716   -1.5283 C.3       1 <0>         0.1443
     11 H1          3.4108   -3.2025   -2.0326 H         1 <0>         0.1452
     12 C9          3.9086   -1.6518   -0.6554 C.2       1 <0>         0.5143
     13 O2          5.0378   -2.0850   -0.5662 O.2       1 <0>        -0.5056
     14 N2          3.5834   -0.5544    0.0206 N.am      1 <0>        -0.6572
     15 C10         2.3502   -1.4044   -2.5693 C.3       1 <0>        -0.1728
     16 C11         1.4414   -2.1541   -3.5090 C.2       1 <0>         0.5239
     17 O3          1.2648   -3.3447   -3.3608 O.2       1 <0>        -0.5036
     18 N3          0.8249   -1.5014   -4.5142 N.am      1 <0>        -0.6780
     19 C12         0.0711   -2.2074   -5.4402 C.2       1 <0>         0.1739
     20 C13         0.3715   -2.1246   -6.7825 C.2       1 <0>        -0.1278
     21 C14        -0.4179   -2.9227   -7.6186 C.2       1 <0>        -0.0793
     22 C15        -0.8322   -2.7828   -8.8937 C.2       1 <0>        -0.1740
     23 C16        -1.8403   -3.7287   -9.1633 C.2       1 <0>         0.1369
     24 N4         -2.0359   -4.5399   -8.1598 N.2       1 <0>        -0.4699
     25 C17        -1.0499   -4.2186   -7.1378 C.3       1 <0>         0.0571
     26 H2         -0.2948   -5.0035   -7.0936 H         1 <0>         0.1483
     27 C18        -1.6101   -3.9727   -5.7693 C.2       1 <0>        -0.0860
     28 C19        -1.0432   -3.0480   -4.9928 C.2       1 <0>        -0.1246
     29 H3         -0.9601    2.0680   -0.1075 H         1 <0>         0.1383
     30 H4          1.1944    3.2638   -0.1061 H         1 <0>         0.1385
     31 H5          3.2989    2.0112   -0.0455 H         1 <0>         0.1387
     32 H6         -1.0065   -0.3811   -0.0623 H         1 <0>         0.1399
     33 H7          1.6892   -3.8392   -0.6310 H         1 <0>         0.4210
     34 H8          4.2656   -0.1667    0.5909 H         1 <0>         0.4153
     35 H9          1.7852   -0.6196   -2.0663 H         1 <0>         0.1157
     36 H10         3.1684   -0.9578   -3.1342 H         1 <0>         0.1209
     37 H11         0.9083   -0.5380   -4.5901 H         1 <0>         0.4126
     38 H12         1.1585   -1.4898   -7.1619 H         1 <0>         0.1436
     39 H13        -0.4510   -2.0585   -9.5983 H         1 <0>         0.1463
     40 H14        -2.3881   -3.7772  -10.0928 H         1 <0>         0.1732
     41 H15        -2.4582   -4.5401   -5.4154 H         1 <0>         0.1372
     42 H16        -1.4256   -2.9103   -3.9922 H         1 <0>         0.1238
@<TRIPOS>BOND
     1    1    6 ar
     2    1    2 ar
     3    1   29 1
     4    2    3 ar
     5    2   30 1
     6    3    4 ar
     7    3   31 1
     8    4   14 1
     9    4    5 ar
    10    5    6 ar
    11    5    7 1
    12    6   32 1
    13    7    8 2
    14    7    9 am
    15    9   10 1
    16    9   33 1
    17   10   11 1
    18   10   12 1
    19   10   15 1
    20   12   13 2
    21   12   14 am
    22   14   34 1
    23   15   16 1
    24   15   35 1
    25   15   36 1
    26   16   17 2
    27   16   18 am
    28   18   19 1
    29   18   37 1
    30   19   28 1
    31   19   20 2
    32   20   21 1
    33   20   38 1
    34   21   25 1
    35   21   22 2
    36   22   23 1
    37   22   39 1
    38   23   24 2
    39   23   40 1
    40   24   25 1
    41   25   26 1
    42   25   27 1
    43   27   28 2
    44   27   41 1
    45   28   42 1
@<TRIPOS>MOLECULE
ZINC67028714
   42    45     0     0     0
SMALL
USER_CHARGES

@<TRIPOS>ATOM
      1 C1          0.8483    0.9419   -0.8072 C.3       1 <0>        -0.0897
      2 C2         -0.0794    0.1728    0.0977 C.2       1 <0>         0.0820
      3 C3         -0.8009   -0.9081   -0.2473 C.2       1 <0>        -0.2858
      4 C4         -1.5353   -1.3252    0.8857 C.2       1 <0>         0.3336
      5 N1         -1.2523   -0.5106    1.8700 N.2       1 <0>        -0.3521
      6 O1         -0.3239    0.4447    1.3892 O.3       1 <0>        -0.0686
      7 N2         -2.4069   -2.4114    0.9444 N.am      1 <0>        -0.6280
      8 C5         -2.6094   -3.1727   -0.1492 C.2       1 <0>         0.6143
      9 O2         -2.0988   -2.8625   -1.2101 O.2       1 <0>        -0.4811
     10 C6         -3.4161   -4.3334   -0.0643 C.2       1 <0>        -0.2541
     11 C7         -4.7633   -4.2505   -0.0905 C.2       1 <0>         0.1864
     12 N3         -5.5402   -5.3703   -0.0086 N.pl3     1 <0>        -0.5983
     13 C8         -5.0466   -6.6101    0.1019 C.2       1 <0>         0.5571
     14 S1         -6.1340   -7.9290    0.1965 S.2       1 <0>        -0.5825
     15 N4         -3.7216   -6.8535    0.1407 N.pl3     1 <0>        -0.6437
     16 C9         -2.7964   -5.7112    0.0526 C.3       1 <0>         0.2591
     17 H1         -2.1503   -5.8635   -0.8119 H         1 <0>         0.1154
     18 C10        -1.9279   -5.7270    1.2840 C.2       1 <0>         0.0361
     19 C11        -2.4435   -5.9855    2.5131 C.2       1 <0>        -0.2206
     20 S2         -0.9729   -5.8654    3.5188 S.3       1 <0>         0.1358
     21 C12         0.1190   -5.5059    2.2894 C.2       1 <0>         0.0990
     22 N5         -0.6320   -5.4959    1.2164 N.2       1 <0>        -0.5034
     23 C13         1.6020   -5.2607    2.3965 C.3       1 <0>        -0.0824
     24 C14         2.2682   -5.5375    3.7458 C.3       1 <0>        -0.1620
     25 C15         2.0639   -4.0962    3.2749 C.3       1 <0>        -0.1539
     26 C16        -5.4205   -2.8997   -0.2116 C.3       1 <0>        -0.1376
     27 H2          1.2986    1.7645   -0.2515 H         1 <0>         0.0865
     28 H3          1.6320    0.2784   -1.1728 H         1 <0>         0.0978
     29 H4          0.2853    1.3392   -1.6518 H         1 <0>         0.0980
     30 H5         -0.8165   -1.3759   -1.2206 H         1 <0>         0.1812
     31 H6         -2.8677   -2.6194    1.7722 H         1 <0>         0.4196
     32 H7         -6.5038   -5.2617   -0.0314 H         1 <0>         0.4442
     33 H8         -3.3854   -7.7598    0.2211 H         1 <0>         0.4498
     34 H9         -3.4610   -6.2033    2.8023 H         1 <0>         0.1932
     35 H10         2.1797   -5.4724    1.4968 H         1 <0>         0.1380
     36 H11         1.6338   -5.8970    4.5559 H         1 <0>         0.1003
     37 H12         3.2844   -5.9316    3.7339 H         1 <0>         0.1144
     38 H13         2.9457   -3.5421    2.9533 H         1 <0>         0.1114
     39 H14         1.2951   -3.5075    3.7753 H         1 <0>         0.0996
     40 H15        -5.6332   -2.6919   -1.2603 H         1 <0>         0.1049
     41 H16        -6.3514   -2.8964    0.3555 H         1 <0>         0.0960
     42 H17        -4.7523   -2.1339    0.1823 H         1 <0>         0.0902
@<TRIPOS>BOND
     1    1    2 1
     2    1   27 1
     3    1   28 1
     4    1   29 1
     5    2    6 1
     6    2    3 2
     7    3    4 1
     8    3   30 1
     9    4    5 2
    10    4    7 1
    11    5    6 1
    12    7    8 am
    13    7   31 1
    14    8    9 2
    15    8   10 1
    16   10   16 1
    17   10   11 2
    18   11   12 1
    19   11   26 1
    20   12   13 1
    21   12   32 1
    22   13   14 2
    23   13   15 1
    24   15   16 1
    25   15   33 1
    26   16   17 1
    27   16   18 1
    28   18   22 1
    29   18   19 2
    30   19   20 1
    31   19   34 1
    32   20   21 1
    33   21   22 2
    34   21   23 1
    35   23   25 1
    36   23   24 1
    37   23   35 1
    38   24   25 1
    39   24   36 1
    40   24   37 1
    41   25   38 1
    42   25   39 1
    43   26   40 1
    44   26   41 1
    45   26   42 1
@<TRIPOS>MOLECULE
ZINC08991086
   57    61     0     0     0
SMALL
USER_CHARGES
2-(dimethyl-oxo-BLAHyl)-N-(4-hydroxy-1,1-dioxo-thiolan-3-yl)-acetamide
@<TRIPOS>ATOM
      1 C1         -3.3132    3.7316    5.9807 C.3       1 <0>        -0.1330
      2 C2         -3.4700    5.1942    5.6531 C.2       1 <0>         0.0504
      3 C3         -3.1555    6.2311    6.6419 C.ar      1 <0>        -0.1504
      4 C4         -2.6996    5.8843    7.9136 C.ar      1 <0>        -0.0108
      5 C5         -2.4133    6.8847    8.8320 C.ar      1 <0>        -0.1307
      6 C6         -1.9287    6.9026   10.2123 C.2       1 <0>        -0.1686
      7 C7         -1.8484    8.1922   10.5768 C.2       1 <0>         0.0384
      8 O1         -2.2358    8.9784    9.5583 O.3       1 <0>        -0.1821
      9 C8         -2.5846    8.2416    8.4822 C.ar      1 <0>         0.1049
     10 C9         -3.0385    8.5768    7.2162 C.ar      1 <0>        -0.0878
     11 C10        -3.3252    7.5857    6.2909 C.ar      1 <0>         0.1583
     12 O2         -3.7651    7.9220    5.0601 O.3       1 <0>        -0.2528
     13 C11        -4.0443    6.9738    4.1609 C.2       1 <0>         0.5208
     14 O3         -4.4381    7.3135    3.0598 O.2       1 <0>        -0.4627
     15 C12        -3.9036    5.5976    4.4311 C.2       1 <0>        -0.2100
     16 C13        -4.2383    4.5794    3.3718 C.3       1 <0>        -0.0825
     17 C14        -3.0089    4.2854    2.5513 C.2       1 <0>         0.5202
     18 O4         -1.9638    4.8473    2.8021 O.2       1 <0>        -0.5251
     19 N1         -3.0708    3.3979    1.5388 N.am      1 <0>        -0.7104
     20 C15        -1.8757    3.1121    0.7412 C.3       1 <0>         0.1514
     21 H1         -1.2731    4.0153    0.6444 H         1 <0>         0.1257
     22 C16        -1.0391    1.9946    1.4299 C.3       1 <0>        -0.5888
     23 S1         -0.0172    1.4168    0.0098 S.o2      1 <0>         2.3789
     24 O5          0.0021   -0.0041    0.0020 O.2       1 <0>        -0.9282
     25 O6          1.2102    2.1328    0.0020 O.2       1 <0>        -0.9274
     26 C17        -1.0641    2.0086   -1.3817 C.3       1 <0>        -0.6201
     27 C18        -2.2890    2.6117   -0.6528 C.3       1 <0>         0.0990
     28 H2         -2.6814    3.4461   -1.2341 H         1 <0>         0.0978
     29 O7         -3.3003    1.6112   -0.5171 O.3       1 <0>        -0.5570
     30 C19        -3.2207   10.0257    6.8440 C.3       1 <0>        -0.1100
     31 C20        -1.3854    8.6458   11.9429 C.3       1 <0>        -0.0435
     32 C21        -1.4539    7.4527   12.9023 C.3       1 <0>        -0.1180
     33 C22        -0.7446    6.2495   12.2744 C.3       1 <0>        -0.1244
     34 C23        -1.5745    5.7334   11.0919 C.3       1 <0>        -0.0503
     35 H3         -2.3043    3.4081    5.7248 H         1 <0>         0.0951
     36 H4         -3.4849    3.5774    7.0460 H         1 <0>         0.0839
     37 H5         -4.0370    3.1514    5.4083 H         1 <0>         0.0861
     38 H6         -2.5704    4.8460    8.1814 H         1 <0>         0.1461
     39 H7         -5.0218    4.9729    2.7242 H         1 <0>         0.1179
     40 H8         -4.5862    3.6620    3.8466 H         1 <0>         0.1152
     41 H9         -3.9066    2.9485    1.3383 H         1 <0>         0.4141
     42 H10        -1.6803    1.1967    1.8046 H         1 <0>         0.1484
     43 H11        -0.4146    2.4019    2.2251 H         1 <0>         0.1475
     44 H12        -0.5434    2.7724   -1.9593 H         1 <0>         0.1517
     45 H13        -1.3619    1.1781   -2.0217 H         1 <0>         0.1528
     46 H14        -3.6312    1.2697   -1.3591 H         1 <0>         0.3958
     47 H15        -4.2345   10.3399    7.0924 H         1 <0>         0.0779
     48 H16        -2.5058   10.6354    7.3965 H         1 <0>         0.0740
     49 H17        -3.0537   10.1498    5.7741 H         1 <0>         0.0795
     50 H18        -2.0351    9.4433   12.3035 H         1 <0>         0.0912
     51 H19        -0.3593    9.0088   11.8828 H         1 <0>         0.0942
     52 H20        -2.4968    7.2002   13.0938 H         1 <0>         0.0722
     53 H21        -0.9650    7.7133   13.8410 H         1 <0>         0.0827
     54 H22        -0.6403    5.4596   13.0182 H         1 <0>         0.0759
     55 H23         0.2421    6.5507   11.9225 H         1 <0>         0.0693
     56 H24        -2.4860    5.2635   11.4615 H         1 <0>         0.0791
     57 H25        -0.9907    5.0101   10.5226 H         1 <0>         0.0783
@<TRIPOS>BOND
     1    1    2 1
     2    1   35 1
     3    1   36 1
     4    1   37 1
     5    2   15 2
     6    2    3 1
     7    3   11 ar
     8    3    4 ar
     9    4    5 ar
    10    4   38 1
    11    5    9 ar
    12    5    6 1
    13    6   34 1
    14    6    7 2
    15    7    8 1
    16    7   31 1
    17    8    9 1
    18    9   10 ar
    19   10   11 ar
    20   10   30 1
    21   11   12 1
    22   12   13 1
    23   13   14 2
    24   13   15 1
    25   15   16 1
    26   16   17 1
    27   16   39 1
    28   16   40 1
    29   17   18 2
    30   17   19 am
    31   19   20 1
    32   19   41 1
    33   20   21 1
    34   20   27 1
    35   20   22 1
    36   22   23 1
    37   22   42 1
    38   22   43 1
    39   23   24 2
    40   23   25 2
    41   23   26 1
    42   26   27 1
    43   26   44 1
    44   26   45 1
    45   27   28 1
    46   27   29 1
    47   29   46 1
    48   30   47 1
    49   30   48 1
    50   30   49 1
    51   31   32 1
    52   31   50 1
    53   31   51 1
    54   32   33 1
    55   32   52 1
    56   32   53 1
    57   33   34 1
    58   33   54 1
    59   33   55 1
    60   34   56 1
    61   34   57 1
@<TRIPOS>MOLECULE
ZINC22060526
   64    68     0     0     0
SMALL
USER_CHARGES
[2-(dihydroxy-trimethyl-oxo-BLAHyl)-2-oxo-ethyl] acetate
@<TRIPOS>ATOM
      1 C1         -2.3141    5.2642   -3.6617 C.3       1 <0>        -0.0907
      2 C2         -2.1727    3.7868   -3.4001 C.2       1 <0>         0.3138
      3 N1         -1.0953    3.2597   -2.9390 N.2       1 <0>        -0.5224
      4 C3         -1.2987    1.8073   -2.7924 C.3       1 <0>         0.0237
      5 C4         -2.8561    1.6939   -2.9144 C.3       1 <0>         0.0643
      6 H1         -3.2772    0.8166   -3.4272 H         1 <0>         0.1352
      7 O1         -3.1630    2.9064   -3.6291 O.3       1 <0>        -0.3394
      8 C5         -3.4116    1.8158   -1.4755 C.3       1 <0>        -0.1356
      9 C6         -2.2008    2.1022   -0.5937 C.3       1 <0>        -0.0832
     10 H2         -2.1337    3.1893   -0.4399 H         1 <0>         0.0764
     11 C7         -1.0401    1.3947   -1.3410 C.3       1 <0>        -0.0078
     12 C8          0.2550    1.9005   -0.7313 C.3       1 <0>        -0.0912
     13 C9          0.2834    1.4270    0.7305 C.3       1 <0>         0.1273
     14 H3          1.2057    1.7667    1.2245 H         1 <0>         0.0525
     15 C10        -0.9299    1.9294    1.5065 C.3       1 <0>        -0.0886
     16 H4         -0.8634    3.0266    1.5489 H         1 <0>         0.0795
     17 C11        -2.2464    1.5450    0.8160 C.3       1 <0>        -0.0685
     18 H5         -2.3769    0.4532    0.7847 H         1 <0>         0.1040
     19 C12        -3.4229    2.1566    1.5797 C.3       1 <0>        -0.1124
     20 C13        -3.4915    1.5610    2.9849 C.3       1 <0>         0.1490
     21 H6         -4.3124    1.9899    3.5784 H         1 <0>         0.0677
     22 C14        -2.1459    1.7729    3.6530 C.2       1 <0>        -0.0632
     23 C15        -2.1050    2.3479    4.8468 C.2       1 <0>        -0.2140
     24 C16        -0.8173    2.6006    5.5117 C.2       1 <0>         0.4067
     25 O2         -0.7770    3.0993    6.6210 O.2       1 <0>        -0.4526
     26 C17         0.4220    2.2360    4.8047 C.2       1 <0>        -0.2124
     27 C18         0.3571    1.6579    3.6158 C.2       1 <0>        -0.0808
     28 C19        -0.9168    1.3295    2.9156 C.3       1 <0>        -0.0043
     29 C20        -0.9772   -0.1929    2.7760 C.3       1 <0>        -0.2169
     30 O3         -3.7752    0.1628    2.9047 O.3       1 <0>        -0.5830
     31 O4          0.2956   -0.0017    0.7577 O.3       1 <0>        -0.6036
     32 C21        -1.1375   -0.1252   -1.1949 C.3       1 <0>        -0.2031
     33 C22        -0.5462    0.9730   -3.7968 C.2       1 <0>         0.3850
     34 O5         -0.2831   -0.1792   -3.5487 O.2       1 <0>        -0.3977
     35 C23        -0.1220    1.5766   -5.1109 C.3       1 <0>         0.0186
     36 O6          0.5811    0.5788   -5.8973 O.3       1 <0>        -0.3413
     37 C24         1.0285    0.9587   -7.1045 C.2       1 <0>         0.4597
     38 O7          0.8389    2.0876   -7.4912 O.2       1 <0>        -0.5111
     39 C25         1.7672   -0.0228   -7.9774 C.3       1 <0>        -0.1497
     40 H7         -1.3759    5.7746   -3.3985 H         1 <0>         0.1021
     41 H8         -3.1350    5.6678   -3.0507 H         1 <0>         0.0940
     42 H9         -2.5346    5.4285   -4.7268 H         1 <0>         0.0957
     43 H10        -4.1425    2.6367   -1.4330 H         1 <0>         0.0833
     44 H11        -3.9019    0.8732   -1.1906 H         1 <0>         0.0883
     45 H12         1.1086    1.4875   -1.2888 H         1 <0>         0.0705
     46 H13         0.2802    2.9990   -0.7831 H         1 <0>         0.0851
     47 H14        -3.2867    3.2457    1.6520 H         1 <0>         0.0774
     48 H15        -4.3596    1.9389    1.0457 H         1 <0>         0.0804
     49 H16        -3.0391    2.6404    5.3487 H         1 <0>         0.1404
     50 H17         1.4003    2.4432    5.2628 H         1 <0>         0.1440
     51 H18         1.2816    1.3897    3.0834 H         1 <0>         0.1313
     52 H19        -0.9692   -0.6533    3.7750 H         1 <0>         0.0614
     53 H20        -0.1057   -0.5435    2.2037 H         1 <0>         0.1490
     54 H21        -1.9001   -0.4764    2.2489 H         1 <0>         0.1114
     55 H22        -3.8618   -0.4345    3.8244 H         1 <0>         0.4101
     56 H23         0.3161   -0.5333    1.7205 H         1 <0>         0.3990
     57 H24        -0.9495   -0.4057   -0.1480 H         1 <0>         0.1371
     58 H25        -0.3890   -0.6045   -1.8430 H         1 <0>         0.0906
     59 H26        -2.1439   -0.4580   -1.4887 H         1 <0>         0.0312
     60 H27        -1.0110    1.9178   -5.6616 H         1 <0>         0.1012
     61 H28         0.5439    2.4319   -4.9236 H         1 <0>         0.1133
     62 H29         2.0526    0.4673   -8.9199 H         1 <0>         0.1056
     63 H30         1.1166   -0.8830   -8.1937 H         1 <0>         0.1035
     64 H31         2.6716   -0.3691   -7.4557 H         1 <0>         0.1039
@<TRIPOS>BOND
     1    1    2 1
     2    1   40 1
     3    1   41 1
     4    1   42 1
     5    2    7 1
     6    2    3 2
     7    3    4 1
     8    4   11 1
     9    4    5 1
    10    4   33 1
    11    5    6 1
    12    5    7 1
    13    5    8 1
    14    8    9 1
    15    8   43 1
    16    8   44 1
    17    9   10 1
    18    9   17 1
    19    9   11 1
    20   11   12 1
    21   11   32 1
    22   12   13 1
    23   12   45 1
    24   12   46 1
    25   13   14 1
    26   13   15 1
    27   13   31 1
    28   15   16 1
    29   15   28 1
    30   15   17 1
    31   17   18 1
    32   17   19 1
    33   19   20 1
    34   19   47 1
    35   19   48 1
    36   20   21 1
    37   20   22 1
    38   20   30 1
    39   22   28 1
    40   22   23 2
    41   23   24 1
    42   23   49 1
    43   24   25 2
    44   24   26 1
    45   26   27 2
    46   26   50 1
    47   27   28 1
    48   27   51 1
    49   28   29 1
    50   29   52 1
    51   29   53 1
    52   29   54 1
    53   30   55 1
    54   31   56 1
    55   32   57 1
    56   32   58 1
    57   32   59 1
    58   33   34 2
    59   33   35 1
    60   35   36 1
    61   35   60 1
    62   35   61 1
    63   36   37 1
    64   37   38 2
    65   37   39 1
    66   39   62 1
    67   39   63 1
    68   39   64 1
@<TRIPOS>MOLECULE
ZINC38585755
   44    48     0     0     0
SMALL
USER_CHARGES

@<TRIPOS>ATOM
      1 C1         -0.0599    1.5288   -0.1714 C.3       1 <0>        -0.1346
      2 C2         -0.0246    0.0223   -0.1854 C.2       1 <0>         0.2163
      3 C3         -1.0909   -0.7450   -0.0082 C.2       1 <0>        -0.3000
      4 C4         -2.4740   -0.2477    0.2229 C.3       1 <0>         0.0659
      5 H1         -2.8701   -0.7138    1.1251 H         1 <0>         0.1120
      6 S1         -3.5777   -0.6120   -1.1539 S.3       1 <0>        -0.1902
      7 C5         -3.7768   -2.4019   -1.1650 C.3       1 <0>        -0.1053
      8 C6         -2.4991   -3.1027   -1.4643 C.2       1 <0>         0.5299
      9 O1         -2.6413   -4.0249   -2.2391 O.2       1 <0>        -0.5581
     10 N1         -1.2852   -2.9543   -1.0914 N.am      1 <0>        -0.6904
     11 C7         -0.6224   -2.1713   -0.0928 C.3       1 <0>         0.4254
     12 H2         -0.7697   -2.6449    0.8778 H         1 <0>         0.1070
     13 N2          0.8247   -2.0899   -0.3476 N.pl3     1 <0>        -0.3345
     14 N3          1.1204   -0.7201   -0.3900 N.pl3     1 <0>        -0.5120
     15 C8          1.6842   -3.1161   -0.5102 C.2       1 <0>         0.5283
     16 N4          1.2729   -4.3703   -0.4563 N.2       1 <0>        -0.6542
     17 C9          2.0837   -5.4195   -0.5452 C.2       1 <0>         0.4554
     18 N5          3.3973   -5.3207   -0.3772 N.2       1 <0>        -0.5506
     19 C10         3.8690   -4.0933   -0.1814 C.2       1 <0>         0.3904
     20 N6          4.8657   -3.5989    0.4896 N.2       1 <0>        -0.5324
     21 C11         4.7207   -2.2803    0.6759 C.2       1 <0>         0.3199
     22 N7          3.7196   -1.7751    0.0103 N.2       1 <0>        -0.5449
     23 C12         3.1478   -2.8766   -0.7662 C.3       1 <0>        -0.0700
     24 H3          3.3457   -2.7716   -1.8329 H         1 <0>         0.1764
     25 C13        -2.4277    1.2448    0.4261 C.ar      1 <0>        -0.0697
     26 C14        -2.6593    2.0946   -0.6394 C.ar      1 <0>        -0.0623
     27 C15        -2.6171    3.4634   -0.4544 C.ar      1 <0>        -0.1468
     28 C16        -2.3429    3.9846    0.7989 C.ar      1 <0>         0.1264
     29 C17        -2.1115    3.1338    1.8659 C.ar      1 <0>        -0.1489
     30 C18        -2.1592    1.7638    1.6801 C.ar      1 <0>         0.0013
     31 Cl1        -1.8752    0.6958    3.0189 Cl        1 <0>        -0.0392
     32 F1         -2.3007    5.3228    0.9800 F         1 <0>        -0.1258
     33 H4          0.9403    1.9174   -0.3633 H         1 <0>         0.0765
     34 H5         -0.7419    1.8835   -0.9442 H         1 <0>         0.1082
     35 H6         -0.4034    1.8752    0.8033 H         1 <0>         0.1046
     36 H7         -4.1377   -2.7245   -0.1883 H         1 <0>         0.1174
     37 H8         -4.5146   -2.6719   -1.9206 H         1 <0>         0.1540
     38 H9         -0.6693   -3.5000   -1.6050 H         1 <0>         0.4054
     39 H10         2.0036   -0.3477   -0.5392 H         1 <0>         0.4532
     40 H11         1.6585   -6.3884   -0.7618 H         1 <0>         0.2207
     41 H12         5.3671   -1.6951    1.3131 H         1 <0>         0.2151
     42 H13        -2.8728    1.6885   -1.6171 H         1 <0>         0.1560
     43 H14        -2.7977    4.1267   -1.2874 H         1 <0>         0.1504
     44 H15        -1.8971    3.5393    2.8437 H         1 <0>         0.1534
@<TRIPOS>BOND
     1    1    2 1
     2    1   33 1
     3    1   34 1
     4    1   35 1
     5    2   14 1
     6    2    3 2
     7    3   11 1
     8    3    4 1
     9    4    5 1
    10    4    6 1
    11    4   25 1
    12    6    7 1
    13    7    8 1
    14    7   36 1
    15    7   37 1
    16    8    9 2
    17    8   10 am
    18   10   11 1
    19   10   38 1
    20   11   12 1
    21   11   13 1
    22   13   14 1
    23   13   15 1
    24   14   39 1
    25   15   23 1
    26   15   16 2
    27   16   17 1
    28   17   18 2
    29   17   40 1
    30   18   19 1
    31   19   23 1
    32   19   20 2
    33   20   21 1
    34   21   22 2
    35   21   41 1
    36   22   23 1
    37   23   24 1
    38   25   30 ar
    39   25   26 ar
    40   26   27 ar
    41   26   42 1
    42   27   28 ar
    43   27   43 1
    44   28   29 ar
    45   28   32 1
    46   29   30 ar
    47   29   44 1
    48   30   31 1
@<TRIPOS>MOLECULE
ZINC40814203
   51    54     0     0     0
SMALL
USER_CHARGES

@<TRIPOS>ATOM
      1 C1         -0.0265    1.4954   -0.1845 C.3       1 <0>        -0.1071
      2 C2         -0.0037   -0.0066   -0.0646 C.ar      1 <0>        -0.1673
      3 C3          0.0103   -0.6103    1.1857 C.ar      1 <0>        -0.0486
      4 C4          0.0312   -1.9920    1.2514 C.ar      1 <0>        -0.1995
      5 C5          0.0374   -2.7253    0.0697 C.ar      1 <0>         0.3531
      6 N1          0.0240   -2.1126   -1.1036 N.ar      1 <0>        -0.4739
      7 C6         -0.0022   -0.7968   -1.1968 C.ar      1 <0>         0.1332
      8 N2          0.0584   -4.1170    0.1213 N.am      1 <0>        -0.6553
      9 C7         -0.0389   -4.8350   -1.0152 C.2       1 <0>         0.6000
     10 O1         -0.0518   -4.2698   -2.0928 O.2       1 <0>        -0.4422
     11 C8         -0.1293   -6.2977   -0.9531 C.2       1 <0>        -0.1051
     12 C9         -0.2261   -7.1380   -2.0273 C.2       1 <0>        -0.0234
     13 C10        -0.2878   -8.4356   -1.5048 C.2       1 <0>        -0.1560
     14 C11        -0.2279   -8.3322   -0.1348 C.2       1 <0>         0.0667
     15 O2         -0.1251   -7.0421    0.1761 O.3       1 <0>        -0.1473
     16 C12        -0.2735   -9.5290    0.7809 C.3       1 <0>        -0.0444
     17 C13        -0.8928  -10.7152    0.0370 C.3       1 <0>        -0.1098
     18 C14        -0.1694  -10.9570   -1.2920 C.3       1 <0>        -0.1198
     19 C15        -0.3954   -9.7455   -2.1847 C.2       1 <0>         0.1694
     20 N3         -0.6635   -9.8533   -3.4497 N.2       1 <0>        -0.2169
     21 N4         -0.7534  -11.1200   -4.0413 N.am      1 <0>        -0.5797
     22 C16        -1.0319  -11.2320   -5.3552 C.2       1 <0>         0.5827
     23 O3         -1.2050  -10.2334   -6.0273 O.2       1 <0>        -0.4915
     24 C17        -1.1267  -12.5683   -5.9793 C.ar      1 <0>        -0.1865
     25 C18        -1.4097  -12.6981   -7.3447 C.ar      1 <0>        -0.0108
     26 C19        -1.4871  -13.9715   -7.8800 C.ar      1 <0>        -0.1745
     27 C20        -1.2846  -15.0654   -7.0575 C.ar      1 <0>         0.1270
     28 N5         -1.0195  -14.9129   -5.7741 N.ar      1 <0>        -0.4847
     29 C21        -0.9302  -13.7219   -5.2191 C.ar      1 <0>         0.1345
     30 C22        -0.2596   -6.7462   -3.4821 C.3       1 <0>        -0.1022
     31 H1         -1.0596    1.8427   -0.2044 H         1 <0>         0.0719
     32 H2          0.4885    1.9359    0.6692 H         1 <0>         0.0676
     33 H3          0.4749    1.7941   -1.1051 H         1 <0>         0.0699
     34 H4          0.0054   -0.0146    2.0866 H         1 <0>         0.1391
     35 H5          0.0429   -2.4944    2.2074 H         1 <0>         0.1372
     36 H6         -0.0179   -0.3316   -2.1714 H         1 <0>         0.1599
     37 H7          0.1430   -4.5695    0.9751 H         1 <0>         0.4209
     38 H8          0.7383   -9.7850    1.0951 H         1 <0>         0.1037
     39 H9         -0.8778   -9.2936    1.6570 H         1 <0>         0.1006
     40 H10        -0.8140  -11.6085    0.6566 H         1 <0>         0.0948
     41 H11        -1.9445  -10.5066   -0.1592 H         1 <0>         0.0770
     42 H12         0.8977  -11.0866   -1.1114 H         1 <0>         0.1008
     43 H13        -0.5723  -11.8483   -1.7729 H         1 <0>         0.0792
     44 H14        -0.6153  -11.9166   -3.5052 H         1 <0>         0.3844
     45 H15        -1.5638  -11.8267   -7.9637 H         1 <0>         0.1519
     46 H16        -1.7038  -14.1102   -8.9289 H         1 <0>         0.1484
     47 H17        -1.3448  -16.0605   -7.4727 H         1 <0>         0.1660
     48 H18        -0.7068  -13.6375   -4.1658 H         1 <0>         0.1545
     49 H19         0.7570   -6.7175   -3.8742 H         1 <0>         0.0775
     50 H20        -0.8444   -7.4764   -4.0416 H         1 <0>         0.0870
     51 H21        -0.7158   -5.7614   -3.5827 H         1 <0>         0.0875
@<TRIPOS>BOND
     1    1    2 1
     2    1   31 1
     3    1   32 1
     4    1   33 1
     5    2    7 ar
     6    2    3 ar
     7    3    4 ar
     8    3   34 1
     9    4    5 ar
    10    4   35 1
    11    5    6 ar
    12    5    8 1
    13    6    7 ar
    14    7   36 1
    15    8    9 am
    16    8   37 1
    17    9   10 2
    18    9   11 1
    19   11   15 1
    20   11   12 2
    21   12   13 1
    22   12   30 1
    23   13   19 1
    24   13   14 2
    25   14   15 1
    26   14   16 1
    27   16   17 1
    28   16   38 1
    29   16   39 1
    30   17   18 1
    31   17   40 1
    32   17   41 1
    33   18   19 1
    34   18   42 1
    35   18   43 1
    36   19   20 2
    37   20   21 1
    38   21   22 am
    39   21   44 1
    40   22   23 2
    41   22   24 1
    42   24   29 ar
    43   24   25 ar
    44   25   26 ar
    45   25   45 1
    46   26   27 ar
    47   26   46 1
    48   27   28 ar
    49   27   47 1
    50   28   29 ar
    51   29   48 1
    52   30   49 1
    53   30   50 1
    54   30   51 1
@<TRIPOS>MOLECULE
ZINC38585616
   44    48     0     0     0
SMALL
USER_CHARGES

@<TRIPOS>ATOM
      1 C1         -0.0469    1.5216   -0.1213 C.3       1 <0>        -0.1360
      2 C2         -0.0158    0.0150   -0.1336 C.2       1 <0>         0.2179
      3 C3         -1.0877   -0.7491    0.0214 C.2       1 <0>        -0.3068
      4 C4         -2.4740   -0.2477    0.2229 C.3       1 <0>         0.0683
      5 H1         -2.8904   -0.7120    1.1169 H         1 <0>         0.1106
      6 S1         -3.5494   -0.6098   -1.1768 S.3       1 <0>        -0.1886
      7 C5         -3.7534   -2.3991   -1.1909 C.3       1 <0>        -0.1055
      8 C6         -2.4716   -3.1038   -1.4627 C.2       1 <0>         0.5295
      9 O1         -2.6001   -4.0261   -2.2397 O.2       1 <0>        -0.5579
     10 N1         -1.2654   -2.9586   -1.0643 N.am      1 <0>        -0.6909
     11 C7         -0.6217   -2.1768   -0.0523 C.3       1 <0>         0.4251
     12 H2         -0.7908   -2.6493    0.9153 H         1 <0>         0.1074
     13 N2          0.8307   -2.0997   -0.2765 N.pl3     1 <0>        -0.3362
     14 N3          1.1312   -0.7308   -0.3135 N.pl3     1 <0>        -0.5123
     15 C8          1.6905   -3.1286   -0.4202 C.2       1 <0>         0.5287
     16 N4          1.2746   -4.3815   -0.3743 N.2       1 <0>        -0.6537
     17 C9          2.0839   -5.4331   -0.4454 C.2       1 <0>         0.4553
     18 N5          3.3940   -5.3379   -0.2497 N.2       1 <0>        -0.5498
     19 C10         3.8650   -4.1118   -0.0447 C.2       1 <0>         0.3902
     20 N6          4.8487   -3.6198    0.6469 N.2       1 <0>        -0.5319
     21 C11         4.7036   -2.3007    0.8293 C.2       1 <0>         0.3203
     22 N7          3.7183   -1.7930    0.1424 N.2       1 <0>        -0.5452
     23 C12         3.1598   -2.8935   -0.6453 C.3       1 <0>        -0.0704
     24 H3          3.3806   -2.7897   -1.7077 H         1 <0>         0.1766
     25 C13        -2.4277    1.2448    0.4261 C.ar      1 <0>        -0.0479
     26 C14        -2.5621    2.0937   -0.6569 C.ar      1 <0>        -0.0839
     27 C15        -2.5200    3.4629   -0.4730 C.ar      1 <0>        -0.1237
     28 C16        -2.3436    3.9856    0.7964 C.ar      1 <0>         0.0789
     29 C17        -2.2093    3.1344    1.8826 C.ar      1 <0>         0.0699
     30 C18        -2.2567    1.7637    1.6957 C.ar      1 <0>        -0.1135
     31 F1         -2.0366    3.6422    3.1225 F         1 <0>        -0.1221
     32 F2         -2.3019    5.3239    0.9769 F         1 <0>        -0.1225
     33 H4          0.9689    1.9067   -0.2094 H         1 <0>         0.0763
     34 H5         -0.6451    1.8795   -0.9593 H         1 <0>         0.1091
     35 H6         -0.4872    1.8683    0.8136 H         1 <0>         0.1074
     36 H7         -4.1357   -2.7200   -0.2219 H         1 <0>         0.1176
     37 H8         -4.4758   -2.6675   -1.9618 H         1 <0>         0.1536
     38 H9         -0.6404   -3.5064   -1.5644 H         1 <0>         0.4054
     39 H10         2.0184   -0.3611   -0.4442 H         1 <0>         0.4535
     40 H11         1.6607   -6.4009   -0.6703 H         1 <0>         0.2210
     41 H12         5.3381   -1.7169    1.4797 H         1 <0>         0.2154
     42 H13        -2.6997    1.6865   -1.6476 H         1 <0>         0.1535
     43 H14        -2.6244    4.1249   -1.3199 H         1 <0>         0.1542
     44 H15        -2.1560    1.0996    2.5414 H         1 <0>         0.1529
@<TRIPOS>BOND
     1    1    2 1
     2    1   33 1
     3    1   34 1
     4    1   35 1
     5    2   14 1
     6    2    3 2
     7    3   11 1
     8    3    4 1
     9    4    5 1
    10    4    6 1
    11    4   25 1
    12    6    7 1
    13    7    8 1
    14    7   36 1
    15    7   37 1
    16    8    9 2
    17    8   10 am
    18   10   11 1
    19   10   38 1
    20   11   12 1
    21   11   13 1
    22   13   14 1
    23   13   15 1
    24   14   39 1
    25   15   23 1
    26   15   16 2
    27   16   17 1
    28   17   18 2
    29   17   40 1
    30   18   19 1
    31   19   23 1
    32   19   20 2
    33   20   21 1
    34   21   22 2
    35   21   41 1
    36   22   23 1
    37   23   24 1
    38   25   30 ar
    39   25   26 ar
    40   26   27 ar
    41   26   42 1
    42   27   28 ar
    43   27   43 1
    44   28   29 ar
    45   28   32 1
    46   29   30 ar
    47   29   31 1
    48   30   44 1
@<TRIPOS>MOLECULE
ZINC04686933
   42    44     0     0     0
SMALL
USER_CHARGES
4-amino-6-(2,3-dichlorophenyl)-2,2-diethoxy-3-azabicyclo[3.1.0]hex-3-ene-1,5-dicarbonitrile
@<TRIPOS>ATOM
      1 C1         -2.3126    1.5829    1.6868 C.3       1 <0>        -0.1559
      2 C2         -0.8700    2.0924    1.6799 C.3       1 <0>         0.0527
      3 O1         -0.2537    1.7610    0.4339 O.3       1 <0>        -0.3629
      4 C3          1.1060    2.1873    0.3264 C.3       1 <0>         0.5002
      5 C4          1.1747    3.7249    0.2879 C.3       1 <0>         0.0061
      6 C5          0.3960    4.4696   -0.8342 C.3       1 <0>         0.0544
      7 H1          0.2255    5.5372   -0.6955 H         1 <0>         0.1934
      8 C6          1.8352    4.0109   -1.0757 C.3       1 <0>        -0.0248
      9 C7          2.0783    2.6575   -1.6936 C.cat     1 <0>         0.5931
     10 N1          2.6527    2.4655   -2.9224 N.pl3     1 <0>        -0.7507
     11 C8          2.8982    5.0197   -1.2148 C.1       1 <0>         0.1981
     12 N2          3.7185    5.7982   -1.3221 N.1       1 <0>        -0.2937
     13 C9         -0.7002    3.7248   -1.5517 C.ar      1 <0>        -0.0768
     14 C10        -0.4279    3.0670   -2.7368 C.ar      1 <0>        -0.1177
     15 C11        -1.4328    2.3841   -3.3957 C.ar      1 <0>        -0.0831
     16 C12        -2.7114    2.3580   -2.8705 C.ar      1 <0>        -0.0719
     17 C13        -2.9855    3.0156   -1.6851 C.ar      1 <0>        -0.0185
     18 C14        -1.9772    3.6947   -1.0216 C.ar      1 <0>         0.0024
     19 Cl1        -2.3179    4.5141    0.4704 Cl        1 <0>        -0.0212
     20 Cl2        -4.5909    2.9832   -1.0251 Cl        1 <0>        -0.0165
     21 C15         1.5648    4.4278    1.5210 C.1       1 <0>         0.2173
     22 N3          1.8658    4.9703    2.4726 N.1       1 <0>        -0.3069
     23 O2          1.8626    1.6914    1.4326 O.3       1 <0>        -0.3584
     24 C16         1.8761    0.2662    1.5354 C.3       1 <0>         0.0474
     25 C17         2.8097   -0.1544    2.6722 C.3       1 <0>        -0.1572
     26 H2         -2.7827    1.8357    2.6373 H         1 <0>         0.0902
     27 H3         -2.8666    2.0493    0.8721 H         1 <0>         0.0709
     28 H4         -2.3164    0.5008    1.5561 H         1 <0>         0.0720
     29 H5         -0.3160    1.6260    2.4946 H         1 <0>         0.0753
     30 H6         -0.8662    3.1745    1.8107 H         1 <0>         0.0688
     31 H7          2.7812    1.5663   -3.2626 H         1 <0>         0.4442
     32 H8          2.9311    3.2289   -3.4523 H         1 <0>         0.4531
     33 H9          0.5705    3.0871   -3.1481 H         1 <0>         0.1253
     34 H10        -1.2192    1.8708   -4.3216 H         1 <0>         0.1515
     35 H11        -3.4962    1.8245   -3.3861 H         1 <0>         0.1566
     36 H12         0.8678   -0.0928    1.7416 H         1 <0>         0.0808
     37 H13         2.2296   -0.1623    0.5975 H         1 <0>         0.0565
     38 H14         2.8200   -1.2415    2.7505 H         1 <0>         0.0899
     39 H15         3.8180    0.2046    2.4659 H         1 <0>         0.0697
     40 H16         2.4562    0.2741    3.6100 H         1 <0>         0.0746
     41 N4          1.6849    1.6862   -0.9352 N.pl3     1 <0>        -0.6019
     42 H17         1.7652    0.6923   -1.1800 H         1 <0>         0.4736
@<TRIPOS>BOND
     1    1    2 1
     2    1   26 1
     3    1   27 1
     4    1   28 1
     5    2    3 1
     6    2   29 1
     7    2   30 1
     8    3    4 1
     9    4    5 1
    10    4   23 1
    11    4   41 1
    12    5    8 1
    13    5    6 1
    14    5   21 1
    15    6    7 1
    16    6    8 1
    17    6   13 1
    18    8    9 1
    19    8   11 1
    20    9   10 1
    21    9   41 2
    22   10   31 1
    23   10   32 1
    24   11   12 3
    25   13   18 ar
    26   13   14 ar
    27   14   15 ar
    28   14   33 1
    29   15   16 ar
    30   15   34 1
    31   16   17 ar
    32   16   35 1
    33   17   18 ar
    34   17   20 1
    35   18   19 1
    36   21   22 3
    37   23   24 1
    38   24   25 1
    39   24   36 1
    40   24   37 1
    41   25   38 1
    42   25   39 1
    43   25   40 1
    44   41   42 1
@<TRIPOS>MOLECULE
ZINC31814892
   49    52     0     0     0
SMALL
USER_CHARGES
2-[4-(2-methylsulfanyl-5,6,7,8-tetrahydrobenzothiopheno[2,3-d]pyrimidin-4-yl)piperazin-1-yl]acetamide
@<TRIPOS>ATOM
      1 C1          5.0929    7.2094   -1.1873 C.3       1 <0>        -0.1527
      2 S1          3.3157    7.4471   -1.4346 S.3       1 <0>         0.0254
      3 C2          2.7319    5.8351   -1.0278 C.ar      1 <0>         0.3166
      4 N1          1.4294    5.6004   -1.0905 N.ar      1 <0>        -0.5437
      5 C3          0.8728    4.4257   -0.8069 C.ar      1 <0>         0.3934
      6 C4          1.7692    3.3881   -0.4175 C.ar      1 <0>        -0.1581
      7 C5          1.4244    2.0216   -0.0582 C.2       1 <0>        -0.0900
      8 C6          2.4484    1.2063    0.2794 C.2       1 <0>        -0.1277
      9 S2          3.9086    2.2062    0.1379 S.3       1 <0>         0.1407
     10 C7          3.1480    3.7132   -0.3731 C.ar      1 <0>         0.1159
     11 N2          3.6222    4.9070   -0.6703 N.ar      1 <0>        -0.4537
     12 C8          2.3661   -0.2330    0.6854 C.3       1 <0>        -0.0502
     13 C9          0.9048   -0.5614    1.0224 C.3       1 <0>        -0.1157
     14 C10         0.0107   -0.0229   -0.0984 C.3       1 <0>        -0.1267
     15 C11        -0.0120    1.5050   -0.0543 C.3       1 <0>        -0.0453
     16 N3         -0.4931    4.2234   -0.8856 N.pl3     1 <0>        -0.4726
     17 C12        -0.9837    4.4660   -2.2494 C.3       1 <0>         0.0291
     18 C13        -2.4810    4.1554   -2.3128 C.3       1 <0>        -0.0032
     19 N4         -3.1948    4.9966   -1.3420 N.4       1 <0>        -0.3915
     20 C14        -2.7042    4.7539    0.0218 C.3       1 <0>         0.0042
     21 C15        -1.2069    5.0646    0.0853 C.3       1 <0>         0.0264
     22 C16        -4.6456    4.7817   -1.4256 C.3       1 <0>        -0.0298
     23 C17        -5.1500    5.2715   -2.7585 C.2       1 <0>         0.5071
     24 O1         -4.3770    5.7522   -3.5600 O.2       1 <0>        -0.5401
     25 N5         -6.4601    5.1753   -3.0600 N.am      1 <0>        -0.8519
     26 H1          5.6223    8.1487   -1.4053 H         1 <0>         0.1166
     27 H2          5.4546    6.4195   -1.8621 H         1 <0>         0.0963
     28 H3          5.2819    6.9156   -0.1443 H         1 <0>         0.0962
     29 H4          2.7120   -0.8681   -0.1434 H         1 <0>         0.0940
     30 H5          3.0018   -0.4022    1.5670 H         1 <0>         0.0915
     31 H6          0.7839   -1.6515    1.1062 H         1 <0>         0.0806
     32 H7          0.6334   -0.0879    1.9775 H         1 <0>         0.0705
     33 H8          0.4037   -0.3527   -1.0714 H         1 <0>         0.0681
     34 H9         -1.0122   -0.4056    0.0327 H         1 <0>         0.0720
     35 H10        -0.5207    1.8429    0.8606 H         1 <0>         0.0740
     36 H11        -0.5441    1.8944   -0.9348 H         1 <0>         0.0833
     37 H12        -0.8150    5.5193   -2.5178 H         1 <0>         0.0847
     38 H13        -0.4434    3.8170   -2.9543 H         1 <0>         0.1253
     39 H14        -2.8561    4.3638   -3.3256 H         1 <0>         0.1549
     40 H15        -2.6460    3.0949   -2.0717 H         1 <0>         0.1349
     41 H16        -3.2445    5.4028    0.7267 H         1 <0>         0.1441
     42 H17        -2.8728    3.7005    0.2901 H         1 <0>         0.1411
     43 H18        -0.8307    4.8559    1.0977 H         1 <0>         0.1274
     44 H19        -1.0409    6.1248   -0.1562 H         1 <0>         0.0828
     45 H20        -4.8638    3.7085   -1.3229 H         1 <0>         0.1580
     46 H21        -5.1456    5.3365   -0.6180 H         1 <0>         0.1614
     47 H22        -6.8283    5.5328   -4.0329 H         1 <0>         0.4505
     48 H23        -7.1612    4.7393   -2.3331 H         1 <0>         0.4359
     49 H24        -2.9952    6.0489   -1.5927 H         1 <0>         0.4501
@<TRIPOS>BOND
     1    1    2 1
     2    1   26 1
     3    1   27 1
     4    1   28 1
     5    2    3 1
     6    3   11 ar
     7    3    4 ar
     8    4    5 ar
     9    5    6 ar
    10    5   16 1
    11    6   10 ar
    12    6    7 1
    13    7   15 1
    14    7    8 2
    15    8    9 1
    16    8   12 1
    17    9   10 1
    18   10   11 ar
    19   12   13 1
    20   12   29 1
    21   12   30 1
    22   13   14 1
    23   13   31 1
    24   13   32 1
    25   14   15 1
    26   14   33 1
    27   14   34 1
    28   15   35 1
    29   15   36 1
    30   16   21 1
    31   16   17 1
    32   17   18 1
    33   17   37 1
    34   17   38 1
    35   18   19 1
    36   18   39 1
    37   18   40 1
    38   19   20 1
    39   19   22 1
    40   19   49 1
    41   20   21 1
    42   20   41 1
    43   20   42 1
    44   21   43 1
    45   21   44 1
    46   22   23 1
    47   22   45 1
    48   22   46 1
    49   23   24 2
    50   23   25 am
    51   25   47 1
    52   25   48 1
@<TRIPOS>MOLECULE
ZINC39676624
   62    64     0     0     0
SMALL
USER_CHARGES

@<TRIPOS>ATOM
      1 C1         -0.1111   -0.6908    0.8267 C.3       1 <0>        -0.1627
      2 C2         -1.1449   -1.0225   -0.2513 C.3       1 <0>         0.1855
      3 H1         -1.7222   -0.1288   -0.4884 H         1 <0>         0.1019
      4 C3         -2.0705   -2.0988    0.2545 C.ar      1 <0>        -0.0592
      5 C4         -1.6680   -3.4217    0.2346 C.ar      1 <0>        -0.1584
      6 C5         -2.5148   -4.4113    0.6979 C.ar      1 <0>        -0.0722
      7 C6         -3.7660   -4.0808    1.1818 C.ar      1 <0>        -0.2052
      8 C7         -4.1721   -2.7547    1.2029 C.ar      1 <0>         0.1378
      9 C8         -3.3180   -1.7626    0.7430 C.ar      1 <0>        -0.1421
     10 O1         -5.4023   -2.4271    1.6785 O.3       1 <0>        -0.3150
     11 C9         -6.2258   -3.4995    2.1409 C.3       1 <0>         0.0249
     12 N1         -0.4592   -1.4950   -1.4566 N.am      1 <0>        -0.7215
     13 C10         0.0062   -0.6081   -2.3585 C.2       1 <0>         0.5217
     14 O2         -0.1427    0.5810   -2.1723 O.2       1 <0>        -0.5184
     15 C11         0.7116   -1.0941   -3.5984 C.3       1 <0>        -0.1153
     16 H2          1.2104   -2.0434   -3.4029 H         1 <0>         0.1116
     17 C12         1.7317   -0.0405   -4.0850 C.3       1 <0>         0.1098
     18 N2          1.6530   -0.0982   -5.5637 N.am      1 <0>        -0.6239
     19 C13         0.2087   -0.2724   -5.8495 C.3       1 <0>         0.1070
     20 C14        -0.2867   -1.2429   -4.7589 C.3       1 <0>        -0.0716
     21 C15        -1.6891   -0.8518   -4.3030 C.3       1 <0>        -0.1478
     22 C16        -2.6736   -1.0636   -5.4565 C.3       1 <0>        -0.0075
     23 N3         -2.6473   -2.4710   -5.8727 N.4       1 <0>        -0.5045
     24 C17        -1.3196   -2.8133   -6.3969 C.3       1 <0>        -0.0109
     25 C18        -0.2778   -2.6756   -5.2831 C.3       1 <0>        -0.1336
     26 C19         2.6658   -0.0122   -6.4487 C.2       1 <0>         0.5438
     27 O3          2.4386   -0.0768   -7.6383 O.2       1 <0>        -0.5281
     28 C20         4.0804    0.1642   -5.9602 C.3       1 <0>        -0.1095
     29 C21         5.0290    0.2327   -7.1587 C.3       1 <0>        -0.1368
     30 C22         4.1835    1.4601   -5.1535 C.3       1 <0>        -0.1539
     31 H3          0.4661   -1.5845    1.0638 H         1 <0>         0.0626
     32 H4          0.5584    0.0877    0.4608 H         1 <0>         0.0686
     33 H5         -0.6213   -0.3393    1.7235 H         1 <0>         0.0740
     34 H6         -0.6906   -3.6821   -0.1440 H         1 <0>         0.1208
     35 H7         -2.1981   -5.4437    0.6813 H         1 <0>         0.1288
     36 H8         -4.4274   -4.8544    1.5430 H         1 <0>         0.1319
     37 H9         -3.6301   -0.7289    0.7628 H         1 <0>         0.1341
     38 H10        -7.1775   -3.1011    2.4926 H         1 <0>         0.1060
     39 H11        -6.4043   -4.1988    1.3241 H         1 <0>         0.0570
     40 H12        -5.7238   -4.0164    2.9587 H         1 <0>         0.0597
     41 H13        -0.3402   -2.4460   -1.6056 H         1 <0>         0.4001
     42 H14         1.4533    0.9511   -3.7280 H         1 <0>         0.1018
     43 H15         2.7353   -0.2990   -3.7474 H         1 <0>         0.0958
     44 H16        -0.3117    0.6824   -5.7753 H         1 <0>         0.0839
     45 H17         0.0665   -0.7084   -6.8384 H         1 <0>         0.0882
     46 H18        -1.9824   -1.4718   -3.4558 H         1 <0>         0.0978
     47 H19        -1.6961    0.1971   -4.0066 H         1 <0>         0.1263
     48 H20        -3.6793   -0.8007   -5.1285 H         1 <0>         0.1391
     49 H21        -2.3893   -0.4309   -6.2973 H         1 <0>         0.1334
     50 H22        -2.8561   -3.0588   -5.0797 H         1 <0>         0.4275
     51 H23        -1.3271   -3.8403   -6.7621 H         1 <0>         0.1395
     52 H24        -1.0674   -2.1390   -7.2153 H         1 <0>         0.1341
     53 H25         0.7102   -2.9125   -5.6777 H         1 <0>         0.1177
     54 H26        -0.5201   -3.3615   -4.4714 H         1 <0>         0.0960
     55 H27         4.3544   -0.6802   -5.3278 H         1 <0>         0.0983
     56 H28         4.7551    1.0771   -7.7911 H         1 <0>         0.0646
     57 H29         6.0523    0.3603   -6.8054 H         1 <0>         0.0682
     58 H30         4.9556   -0.6906   -7.7334 H         1 <0>         0.0627
     59 H31         3.5077    1.4114   -4.2997 H         1 <0>         0.0628
     60 H32         5.2068    1.5878   -4.8002 H         1 <0>         0.0748
     61 H33         3.9096    2.3046   -5.7859 H         1 <0>         0.0638
     62 H34        -3.3399   -2.6210   -6.5909 H         1 <0>         0.4341
@<TRIPOS>BOND
     1    1    2 1
     2    1   31 1
     3    1   32 1
     4    1   33 1
     5    2    3 1
     6    2    4 1
     7    2   12 1
     8    4    9 ar
     9    4    5 ar
    10    5    6 ar
    11    5   34 1
    12    6    7 ar
    13    6   35 1
    14    7    8 ar
    15    7   36 1
    16    8    9 ar
    17    8   10 1
    18    9   37 1
    19   10   11 1
    20   11   38 1
    21   11   39 1
    22   11   40 1
    23   12   13 am
    24   12   41 1
    25   13   14 2
    26   13   15 1
    27   15   16 1
    28   15   20 1
    29   15   17 1
    30   17   18 1
    31   17   42 1
    32   17   43 1
    33   18   19 1
    34   18   26 am
    35   19   20 1
    36   19   44 1
    37   19   45 1
    38   20   25 1
    39   20   21 1
    40   21   22 1
    41   21   46 1
    42   21   47 1
    43   22   23 1
    44   22   48 1
    45   22   49 1
    46   23   24 1
    47   23   50 1
    48   23   62 1
    49   24   25 1
    50   24   51 1
    51   24   52 1
    52   25   53 1
    53   25   54 1
    54   26   27 2
    55   26   28 1
    56   28   29 1
    57   28   30 1
    58   28   55 1
    59   29   56 1
    60   29   57 1
    61   29   58 1
    62   30   59 1
    63   30   60 1
    64   30   61 1
@<TRIPOS>MOLECULE
ZINC57345263
   48    51     0     0     0
SMALL
USER_CHARGES

@<TRIPOS>ATOM
      1 C1         -0.0169    1.3953    0.0097 C.ar      1 <0>        -0.1536
      2 C2          1.1801    2.0803    0.0020 C.ar      1 <0>         0.1125
      3 N1          2.3305    1.4341   -0.0125 N.ar      1 <0>        -0.4692
      4 C3          2.3932    0.1161   -0.0202 C.ar      1 <0>         0.1046
      5 C4          1.2448   -0.6476   -0.0133 C.ar      1 <0>        -0.1436
      6 C5          0.0021   -0.0041    0.0020 C.ar      1 <0>         0.0067
      7 C6         -1.2564   -0.7814    0.0103 C.2       1 <0>         0.0474
      8 C7         -1.5597   -1.8701   -0.7592 C.2       1 <0>         0.0072
      9 N2         -2.7951   -2.2417   -0.4159 N.2       1 <0>        -0.2479
     10 N3         -3.2393   -1.4532    0.4967 N.2       1 <0>        -0.0506
     11 N4         -2.3578   -0.5638    0.7946 N.pl3     1 <0>        -0.2382
     12 C8         -2.5011    0.4505    1.7509 C.ar      1 <0>         0.1705
     13 C9         -1.4044    0.8644    2.4947 C.ar      1 <0>        -0.1577
     14 C10        -1.5478    1.8663    3.4380 C.ar      1 <0>         0.1586
     15 C11        -2.7842    2.4558    3.6408 C.ar      1 <0>        -0.1718
     16 C12        -3.8792    2.0443    2.8999 C.ar      1 <0>         0.1602
     17 C13        -3.7386    1.0467    1.9516 C.ar      1 <0>        -0.1415
     18 F1         -5.0846    2.6209    3.0994 F         1 <0>        -0.1112
     19 F2         -0.4808    2.2694    4.1621 F         1 <0>        -0.1131
     20 C14        -0.6747   -2.5216   -1.7905 C.3       1 <0>         0.1419
     21 N5          0.1345   -3.5675   -1.1509 N.3       1 <0>        -0.5387
     22 C15        -0.7120   -4.6650   -0.6658 C.3       1 <0>         0.0523
     23 C16         0.1432   -5.6618    0.1196 C.3       1 <0>        -0.1381
     24 C17         1.2472   -6.2077   -0.7902 C.3       1 <0>         0.0230
     25 C18         2.0845   -5.0404   -1.3204 C.3       1 <0>        -0.1378
     26 C19         1.1730   -4.0616   -2.0641 C.3       1 <0>         0.0535
     27 N6          2.1069   -7.1209   -0.0254 N.4       1 <0>        -0.6358
     28 H1         -0.9547    1.9307    0.0260 H         1 <0>         0.1346
     29 H2          1.1759    3.1602    0.0074 H         1 <0>         0.1651
     30 H3          3.3569   -0.3713   -0.0323 H         1 <0>         0.1621
     31 H4          1.3035   -1.7260   -0.0200 H         1 <0>         0.1538
     32 H5         -0.4401    0.4043    2.3374 H         1 <0>         0.1515
     33 H6         -2.8947    3.2372    4.3780 H         1 <0>         0.1663
     34 H7         -4.5920    0.7289    1.3710 H         1 <0>         0.1618
     35 H8         -1.2925   -2.9663   -2.5706 H         1 <0>         0.0703
     36 H9         -0.0173   -1.7719   -2.2308 H         1 <0>         0.1031
     37 H10        -1.4903   -4.2637   -0.0167 H         1 <0>         0.1014
     38 H11        -1.1723   -5.1710   -1.5145 H         1 <0>         0.0539
     39 H12         0.5928   -5.1598    0.9763 H         1 <0>         0.0950
     40 H13        -0.4825   -6.4843    0.4662 H         1 <0>         0.0944
     41 H14         0.7982   -6.7434   -1.6266 H         1 <0>         0.1409
     42 H15         2.5646   -4.5286   -0.4863 H         1 <0>         0.0976
     43 H16         2.8457   -5.4189   -2.0026 H         1 <0>         0.0964
     44 H17         0.7039   -4.5704   -2.9062 H         1 <0>         0.0532
     45 H18         1.7637   -3.2221   -2.4305 H         1 <0>         0.1015
     46 H19         1.5534   -7.8870    0.3279 H         1 <0>         0.4368
     47 H20         2.8340   -7.4801   -0.6257 H         1 <0>         0.4365
     48 H21         2.5237   -6.6229    0.7468 H         1 <0>         0.4340
@<TRIPOS>BOND
     1    1    6 ar
     2    1    2 ar
     3    1   28 1
     4    2    3 ar
     5    2   29 1
     6    3    4 ar
     7    4    5 ar
     8    4   30 1
     9    5    6 ar
    10    5   31 1
    11    6    7 1
    12    7   11 1
    13    7    8 2
    14    8    9 1
    15    8   20 1
    16    9   10 2
    17   10   11 1
    18   11   12 1
    19   12   17 ar
    20   12   13 ar
    21   13   14 ar
    22   13   32 1
    23   14   15 ar
    24   14   19 1
    25   15   16 ar
    26   15   33 1
    27   16   17 ar
    28   16   18 1
    29   17   34 1
    30   20   21 1
    31   20   35 1
    32   20   36 1
    33   21   26 1
    34   21   22 1
    35   22   23 1
    36   22   37 1
    37   22   38 1
    38   23   24 1
    39   23   39 1
    40   23   40 1
    41   24   25 1
    42   24   27 1
    43   24   41 1
    44   25   26 1
    45   25   42 1
    46   25   43 1
    47   26   44 1
    48   26   45 1
    49   27   46 1
    50   27   47 1
    51   27   48 1
@<TRIPOS>MOLECULE
ZINC65248328
   37    40     0     0     0
SMALL
USER_CHARGES

@<TRIPOS>ATOM
      1 C1         -0.0164    1.3570    0.0095 C.ar      1 <0>        -0.1481
      2 C2          1.1624    2.0960    0.0022 C.ar      1 <0>         0.0533
      3 C3          2.3860    1.4966   -0.0127 C.ar      1 <0>        -0.1921
      4 C4          2.4804    0.0945   -0.0211 C.ar      1 <0>         0.3168
      5 N1          3.6842   -0.4922   -0.0353 N.am      1 <0>        -0.6080
      6 C5          3.8569   -1.7983   -0.0444 C.2       1 <0>         0.5443
      7 O1          4.9821   -2.2628   -0.0572 O.2       1 <0>        -0.4398
      8 C6          2.6592   -2.7207   -0.0385 C.3       1 <0>        -0.1586
      9 H1          2.7211   -3.3551   -0.9227 H         1 <0>         0.1908
     10 C7          1.2856   -2.0781   -0.0219 C.2       1 <0>         0.4084
     11 C8          1.2381   -0.6823   -0.0135 C.ar      1 <0>        -0.2726
     12 C9          0.0021   -0.0041    0.0020 C.ar      1 <0>        -0.0071
     13 O2          0.1698   -2.8149   -0.0161 O.3       1 <0>        -0.3472
     14 C10         2.7688   -3.6247    1.1910 C.3       1 <0>         0.2920
     15 H2          2.6782   -3.0364    2.1041 H         1 <0>         0.1230
     16 N2          4.0442   -4.3582    1.1771 N.pl3     1 <0>        -0.7395
     17 C11         3.7306   -5.7044    1.1316 C.2       1 <0>         0.3820
     18 N3          2.4509   -5.8862    1.1161 N.2       1 <0>        -0.3278
     19 O3          1.7620   -4.6477    1.1521 O.3       1 <0>        -0.1762
     20 C12         4.7308   -6.7956    1.1037 C.ar      1 <0>        -0.0597
     21 C13         6.0933   -6.4975    1.1289 C.ar      1 <0>        -0.0686
     22 C14         7.0209   -7.5184    1.1032 C.ar      1 <0>        -0.1100
     23 C15         6.6027   -8.8361    1.0525 C.ar      1 <0>        -0.0562
     24 C16         5.2524   -9.1388    1.0273 C.ar      1 <0>        -0.0953
     25 C17         4.3145   -8.1256    1.0580 C.ar      1 <0>        -0.0372
     26 Br1         4.6907  -10.9431    0.9574 Br        1 <0>        -0.0230
     27 H3         -0.9648    1.8735    0.0259 H         1 <0>         0.1622
     28 H4          1.1061    3.1745    0.0082 H         1 <0>         0.1651
     29 H5          3.2826    2.0986   -0.0184 H         1 <0>         0.1688
     30 H6         -0.9235   -0.5605    0.0082 H         1 <0>         0.1588
     31 H7         -0.6452   -2.2945   -0.0055 H         1 <0>         0.4423
     32 H8          4.9337   -3.9719    1.1962 H         1 <0>         0.4416
     33 H9          6.4214   -5.4693    1.1681 H         1 <0>         0.1328
     34 H10         8.0760   -7.2884    1.1223 H         1 <0>         0.1469
     35 H11         7.3327   -9.6318    1.0322 H         1 <0>         0.1460
     36 H12         3.2609   -8.3627    1.0427 H         1 <0>         0.1498
     37 H13         4.4711    0.0749   -0.0394 H         1 <0>         0.4418
@<TRIPOS>BOND
     1    1   12 ar
     2    1    2 ar
     3    1   27 1
     4    2    3 ar
     5    2   28 1
     6    3    4 ar
     7    3   29 1
     8    4   11 ar
     9    4    5 2
    10    5    6 am
    11    5   37 1
    12    6    7 2
    13    6    8 1
    14    8    9 1
    15    8   10 1
    16    8   14 1
    17   10   11 2
    18   10   13 1
    19   11   12 ar
    20   12   30 1
    21   13   31 1
    22   14   15 1
    23   14   19 1
    24   14   16 1
    25   16   17 1
    26   16   32 1
    27   17   18 2
    28   17   20 1
    29   18   19 1
    30   20   25 ar
    31   20   21 ar
    32   21   22 ar
    33   21   33 1
    34   22   23 ar
    35   22   34 1
    36   23   24 ar
    37   23   35 1
    38   24   25 ar
    39   24   26 1
    40   25   36 1
@<TRIPOS>MOLECULE
ZINC67562140
   49    52     0     0     0
SMALL
USER_CHARGES

@<TRIPOS>ATOM
      1 C1         -0.0167    1.3780    0.0096 C.ar      1 <0>        -0.1085
      2 C2          1.1709    2.0861    0.0021 C.ar      1 <0>        -0.0951
      3 C3          2.3773    1.4123   -0.0135 C.ar      1 <0>        -0.1042
      4 C4          2.3967    0.0287   -0.0210 C.ar      1 <0>        -0.0201
      5 C5          1.2083   -0.6792   -0.0130 C.ar      1 <0>        -0.1020
      6 C6          0.0021   -0.0041    0.0020 C.ar      1 <0>        -0.1022
      7 C7          1.2286   -2.1860   -0.0218 C.3       1 <0>        -0.0799
      8 C8          1.3756   -2.7024    1.4109 C.3       1 <0>         0.1340
      9 C9          0.2196   -2.2292    2.2697 C.2       1 <0>         0.5339
     10 O1         -0.9569   -2.4776    2.1153 O.2       1 <0>        -0.4575
     11 N1          0.7719   -1.4756    3.2409 N.am      1 <0>        -0.5674
     12 C10         2.1022   -1.4075    3.1165 C.2       1 <0>         0.7005
     13 O2          2.8208   -0.7861    3.8745 O.2       1 <0>        -0.5166
     14 N2          2.5557   -2.1043    2.0588 N.am      1 <0>        -0.7174
     15 C11         0.0095   -0.8121    4.3015 C.3       1 <0>         0.2114
     16 C12        -0.1172   -1.7381    5.4837 C.2       1 <0>        -0.2410
     17 C13         0.6936   -1.8821    6.5630 C.2       1 <0>         0.0731
     18 N3          0.3397   -2.7803    7.4604 N.2       1 <0>        -0.5129
     19 C14        -0.7453   -3.4991    7.3141 C.2       1 <0>         0.0390
     20 S1         -1.3795   -2.9447    5.8570 S.3       1 <0>         0.1133
     21 C15         1.4704   -4.2294    1.4240 C.3       1 <0>        -0.0934
     22 C16         0.2551   -4.8240    0.7066 C.3       1 <0>        -0.1579
     23 C17         0.3155   -6.3506    0.7925 C.3       1 <0>        -0.0038
     24 N4          0.3060   -6.7658    2.2003 N.4       1 <0>        -0.5074
     25 C18         1.5058   -6.2589    2.8772 C.3       1 <0>        -0.0010
     26 C19         1.4912   -4.7288    2.8715 C.3       1 <0>        -0.1550
     27 Cl1         3.9119   -0.8184   -0.0411 Cl        1 <0>        -0.0637
     28 H1         -0.9592    1.9049    0.0259 H         1 <0>         0.1349
     29 H2          1.1556    3.1659    0.0080 H         1 <0>         0.1385
     30 H3          3.3048    1.9655   -0.0201 H         1 <0>         0.1389
     31 H4         -0.9258   -0.5566    0.0079 H         1 <0>         0.1334
     32 H5          0.2978   -2.5594   -0.4488 H         1 <0>         0.1057
     33 H6          2.0692   -2.5346   -0.6217 H         1 <0>         0.1051
     34 H7          3.4796   -2.1954    1.7778 H         1 <0>         0.4413
     35 H8          0.5270    0.0975    4.6063 H         1 <0>         0.1265
     36 H9         -0.9836   -0.5582    3.9308 H         1 <0>         0.1158
     37 H10         1.5879   -1.2882    6.6808 H         1 <0>         0.1784
     38 H11        -1.1399   -4.2599    7.9714 H         1 <0>         0.2214
     39 H12         2.3834   -4.5422    0.9173 H         1 <0>         0.1154
     40 H13        -0.6586   -4.4685    1.1828 H         1 <0>         0.1093
     41 H14         0.2641   -4.5177   -0.3395 H         1 <0>         0.1234
     42 H15        -0.5482   -6.7772    0.2825 H         1 <0>         0.1399
     43 H16         1.2294   -6.7050    0.3158 H         1 <0>         0.1340
     44 H17        -0.5161   -6.3959    2.6535 H         1 <0>         0.4292
     45 H18         1.5208   -6.6179    3.9063 H         1 <0>         0.1364
     46 H19         2.3943   -6.6153    2.3560 H         1 <0>         0.1365
     47 H20         2.3837   -4.3545    3.3729 H         1 <0>         0.1169
     48 H21         0.6031   -4.3714    3.3927 H         1 <0>         0.0865
     49 H22         0.2919   -7.7734    2.2527 H         1 <0>         0.4345
@<TRIPOS>BOND
     1    1    6 ar
     2    1    2 ar
     3    1   28 1
     4    2    3 ar
     5    2   29 1
     6    3    4 ar
     7    3   30 1
     8    4    5 ar
     9    4   27 1
    10    5    6 ar
    11    5    7 1
    12    6   31 1
    13    7    8 1
    14    7   32 1
    15    7   33 1
    16    8   14 1
    17    8    9 1
    18    8   21 1
    19    9   10 2
    20    9   11 am
    21   11   12 am
    22   11   15 1
    23   12   13 2
    24   12   14 am
    25   14   34 1
    26   15   16 1
    27   15   35 1
    28   15   36 1
    29   16   20 1
    30   16   17 2
    31   17   18 1
    32   17   37 1
    33   18   19 2
    34   19   20 1
    35   19   38 1
    36   21   26 1
    37   21   22 1
    38   21   39 1
    39   22   23 1
    40   22   40 1
    41   22   41 1
    42   23   24 1
    43   23   42 1
    44   23   43 1
    45   24   25 1
    46   24   44 1
    47   24   49 1
    48   25   26 1
    49   25   45 1
    50   25   46 1
    51   26   47 1
    52   26   48 1
@<TRIPOS>MOLECULE
ZINC25876507
   55    56     0     0     0
SMALL
USER_CHARGES
1-methylsulfonyl-N-(2,2,6,6-tetramethyl-4-piperidyl)piperidine-4-carboxamide
@<TRIPOS>ATOM
      1 C1         -2.9472    1.9230   -2.3191 C.3       1 <0>        -0.1782
      2 C2         -2.1952    1.1303   -1.2269 C.3       1 <0>         0.0720
      3 C3         -0.7470    1.6135   -1.2229 C.3       1 <0>        -0.1390
      4 C4         -0.0127    1.0827    0.0080 C.3       1 <0>         0.1395
      5 C5         -0.7233    1.6001    1.2583 C.3       1 <0>        -0.1422
      6 C6         -2.1719    1.1188    1.2845 C.3       1 <0>         0.0539
      7 N1         -2.8678    1.3511    0.0362 N.4       1 <0>        -0.5136
      8 C7         -2.9025    1.9029    2.3973 C.3       1 <0>        -0.1797
      9 C8         -2.2121   -0.3640    1.6733 C.3       1 <0>        -0.1763
     10 N2          1.3695    1.5781   -0.0025 N.am      1 <0>        -0.7444
     11 C9          2.3328    0.9018    0.6541 C.2       1 <0>         0.5244
     12 O1          2.0579   -0.1159    1.2538 O.2       1 <0>        -0.5320
     13 C10         3.7514    1.4103    0.6433 C.3       1 <0>        -0.1038
     14 C11         4.2598    1.4723   -0.7988 C.3       1 <0>        -0.1272
     15 C12         5.6895    2.0224   -0.8088 C.3       1 <0>         0.1187
     16 N3          6.5171    1.2039    0.0879 N.pl3     1 <0>        -1.0009
     17 C13         6.0720    1.0039    1.4737 C.3       1 <0>         0.1168
     18 C14         4.6378    0.4655    1.4581 C.3       1 <0>        -0.1174
     19 S1          7.9246    0.5195   -0.4533 S.o2      1 <0>         2.6088
     20 O2          8.3505    1.3595   -1.5175 O.2       1 <0>        -0.9515
     21 O3          8.7237    0.3645    0.7114 O.2       1 <0>        -0.9493
     22 C15         7.4360   -1.1047   -1.0966 C.3       1 <0>        -0.6765
     23 C16        -2.2407   -0.3491   -1.6276 C.3       1 <0>        -0.1789
     24 H1         -2.4526    1.7697   -3.2896 H         1 <0>         0.1057
     25 H2         -2.9371    2.9938   -2.0675 H         1 <0>         0.0814
     26 H3         -3.9873    1.5699   -2.3778 H         1 <0>         0.0843
     27 H4         -0.2373    1.2519   -2.1281 H         1 <0>         0.1141
     28 H5         -0.7274    2.7132   -1.2056 H         1 <0>         0.0951
     29 H6          0.0319   -0.0164    0.0017 H         1 <0>         0.1033
     30 H7         -0.2058    1.2278    2.1547 H         1 <0>         0.1100
     31 H8         -0.7112    2.7000    1.2583 H         1 <0>         0.0898
     32 H9         -3.1851    2.4022    0.1038 H         1 <0>         0.4432
     33 H10        -3.9530    1.5799    2.4442 H         1 <0>         0.0844
     34 H11        -2.8594    2.9795    2.1760 H         1 <0>         0.0820
     35 H12        -2.4153    1.7074    3.3639 H         1 <0>         0.1065
     36 H13        -3.2561   -0.7100    1.6919 H         1 <0>         0.0817
     37 H14        -1.7649   -0.4940    2.6698 H         1 <0>         0.1042
     38 H15        -1.6442   -0.9516    0.9370 H         1 <0>         0.0808
     39 H16         1.6188    2.5012   -0.5463 H         1 <0>         0.4267
     40 H17         3.7686    2.4159    1.0889 H         1 <0>         0.1052
     41 H18         4.2510    0.4623   -1.2344 H         1 <0>         0.0745
     42 H19         3.6074    2.1321   -1.3896 H         1 <0>         0.0799
     43 H20         6.0920    1.9786   -1.8316 H         1 <0>         0.0994
     44 H21         5.6832    3.0661   -0.4616 H         1 <0>         0.0803
     45 H22         6.7360    0.2819    1.9715 H         1 <0>         0.1001
     46 H23         6.1045    1.9630    2.0113 H         1 <0>         0.0791
     47 H24         4.2570    0.4026    2.4882 H         1 <0>         0.0861
     48 H25         4.6251   -0.5348    1.0008 H         1 <0>         0.0760
     49 H26         8.3236   -1.6295   -1.4795 H         1 <0>         0.1323
     50 H27         6.7083   -0.9728   -1.9109 H         1 <0>         0.1262
     51 H28         6.9798   -1.6966   -0.2895 H         1 <0>         0.1282
     52 H29        -1.7136   -0.9500   -0.8719 H         1 <0>         0.0812
     53 H30        -1.7532   -0.4794   -2.6050 H         1 <0>         0.1043
     54 H31        -3.2880   -0.6791   -1.6933 H         1 <0>         0.0842
     55 H32        -3.7498    0.6969    0.1013 H         1 <0>         0.4464
@<TRIPOS>BOND
     1    1    2 1
     2    1   24 1
     3    1   25 1
     4    1   26 1
     5    2    7 1
     6    2    3 1
     7    2   23 1
     8    3    4 1
     9    3   27 1
    10    3   28 1
    11    4    5 1
    12    4   10 1
    13    4   29 1
    14    5    6 1
    15    5   30 1
    16    5   31 1
    17    6    7 1
    18    6    8 1
    19    6    9 1
    20    7   32 1
    21    7   55 1
    22    8   33 1
    23    8   34 1
    24    8   35 1
    25    9   36 1
    26    9   37 1
    27    9   38 1
    28   10   11 am
    29   10   39 1
    30   11   12 2
    31   11   13 1
    32   13   18 1
    33   13   14 1
    34   13   40 1
    35   14   15 1
    36   14   41 1
    37   14   42 1
    38   15   16 1
    39   15   43 1
    40   15   44 1
    41   16   17 1
    42   16   19 1
    43   17   18 1
    44   17   45 1
    45   17   46 1
    46   18   47 1
    47   18   48 1
    48   19   20 2
    49   19   21 2
    50   19   22 1
    51   22   49 1
    52   22   50 1
    53   22   51 1
    54   23   52 1
    55   23   53 1
    56   23   54 1
@<TRIPOS>MOLECULE
ZINC39672603
   59    62     0     0     0
SMALL
USER_CHARGES

@<TRIPOS>ATOM
      1 C1          1.0162   -5.8009   -2.4722 C.3       1 <0>        -0.0861
      2 C2          1.1541   -6.0352   -0.9899 C.2       1 <0>         0.0628
      3 C3          1.7238   -7.1659   -0.4999 C.2       1 <0>        -0.2103
      4 S1          1.5991   -6.8632    1.2554 S.3       1 <0>         0.1124
      5 C4          0.8493   -5.3583    1.1776 C.2       1 <0>         0.0135
      6 N1          0.7320   -5.1493   -0.1099 N.2       1 <0>        -0.4878
      7 C5          0.4218   -4.4654    2.3138 C.3       1 <0>         0.2135
      8 N2         -0.9530   -4.7916    2.7006 N.am      1 <0>        -0.7232
      9 C6         -1.5493   -4.1163    3.7030 C.2       1 <0>         0.5240
     10 O1         -0.9478   -3.2385    4.2848 O.2       1 <0>        -0.5148
     11 C7         -2.9636   -4.4518    4.1009 C.3       1 <0>        -0.1134
     12 H1         -3.5183   -4.8320    3.2431 H         1 <0>         0.1131
     13 C8         -3.6669   -3.2076    4.6879 C.3       1 <0>         0.1089
     14 N3         -4.5093   -3.7370    5.7862 N.am      1 <0>        -0.6235
     15 C9         -3.6725   -4.7833    6.4211 C.3       1 <0>         0.1072
     16 C10        -2.9685   -5.4833    5.2417 C.3       1 <0>        -0.0725
     17 C11        -1.5391   -5.8533    5.6257 C.3       1 <0>        -0.1485
     18 C12        -1.5702   -6.9230    6.7210 C.3       1 <0>        -0.0074
     19 N4         -2.2887   -8.1060    6.2320 N.4       1 <0>        -0.5047
     20 C13        -3.6882   -7.7619    5.9532 C.3       1 <0>        -0.0109
     21 C14        -3.7467   -6.7278    4.8254 C.3       1 <0>        -0.1340
     22 C15        -5.7550   -3.3541    6.1299 C.2       1 <0>         0.5464
     23 O2         -6.3179   -3.8878    7.0622 O.2       1 <0>        -0.5260
     24 C16        -6.4484   -2.2627    5.3559 C.3       1 <0>        -0.1032
     25 H2         -6.5449   -2.5590    4.3114 H         1 <0>         0.1008
     26 C17        -7.8396   -2.0122    5.9515 C.3       1 <0>        -0.1002
     27 C18        -8.5857   -1.0326    5.0431 C.3       1 <0>        -0.0958
     28 C19        -7.7210    0.1571    4.7451 C.2       1 <0>        -0.1473
     29 C20        -6.4387    0.1838    4.9202 C.2       1 <0>        -0.1633
     30 C21        -5.6363   -0.9692    5.4507 C.3       1 <0>        -0.0828
     31 H3          1.9049   -5.2907   -2.8436 H         1 <0>         0.0805
     32 H4          0.9066   -6.7578   -2.9826 H         1 <0>         0.0793
     33 H5          0.1374   -5.1848   -2.6625 H         1 <0>         0.0779
     34 H6          2.1377   -8.0135   -1.0260 H         1 <0>         0.2023
     35 H7          1.0848   -4.6184    3.1654 H         1 <0>         0.0995
     36 H8          0.4725   -3.4239    1.9964 H         1 <0>         0.1066
     37 H9         -1.4342   -5.4937    2.2353 H         1 <0>         0.4035
     38 H10        -2.9315   -2.5041    5.0783 H         1 <0>         0.1028
     39 H11        -4.2872   -2.7288    3.9302 H         1 <0>         0.0968
     40 H12        -2.9393   -4.3309    7.0887 H         1 <0>         0.0850
     41 H13        -4.2972   -5.4920    6.9648 H         1 <0>         0.0890
     42 H14        -1.0167   -6.2425    4.7518 H         1 <0>         0.0960
     43 H15        -1.0211   -4.9686    5.9958 H         1 <0>         0.1274
     44 H16        -0.5501   -7.2015    6.9856 H         1 <0>         0.1400
     45 H17        -2.0782   -6.5275    7.6005 H         1 <0>         0.1340
     46 H18        -1.8505   -8.4383    5.3861 H         1 <0>         0.4274
     47 H19        -4.2295   -8.6587    5.6519 H         1 <0>         0.1398
     48 H20        -4.1458   -7.3463    6.8510 H         1 <0>         0.1346
     49 H21        -4.7852   -6.4595    4.6312 H         1 <0>         0.1183
     50 H22        -3.3041   -7.1486    3.9225 H         1 <0>         0.0958
     51 H23        -8.3891   -2.9519    6.0068 H         1 <0>         0.0759
     52 H24        -7.7394   -1.5835    6.9487 H         1 <0>         0.0732
     53 H25        -8.8469   -1.5322    4.1102 H         1 <0>         0.0767
     54 H26        -9.4972   -0.7012    5.5405 H         1 <0>         0.0810
     55 H27        -8.1982    1.0463    4.3602 H         1 <0>         0.1087
     56 H28        -5.9116    1.0914    4.6654 H         1 <0>         0.1102
     57 H29        -5.3806   -0.7787    6.4930 H         1 <0>         0.0785
     58 H30        -4.7202   -1.0744    4.8695 H         1 <0>         0.0780
     59 H31        -2.2553   -8.8315    6.9324 H         1 <0>         0.4347
@<TRIPOS>BOND
     1    1    2 1
     2    1   31 1
     3    1   32 1
     4    1   33 1
     5    2    6 1
     6    2    3 2
     7    3    4 1
     8    3   34 1
     9    4    5 1
    10    5    6 2
    11    5    7 1
    12    7    8 1
    13    7   35 1
    14    7   36 1
    15    8    9 am
    16    8   37 1
    17    9   10 2
    18    9   11 1
    19   11   12 1
    20   11   16 1
    21   11   13 1
    22   13   14 1
    23   13   38 1
    24   13   39 1
    25   14   15 1
    26   14   22 am
    27   15   16 1
    28   15   40 1
    29   15   41 1
    30   16   21 1
    31   16   17 1
    32   17   18 1
    33   17   42 1
    34   17   43 1
    35   18   19 1
    36   18   44 1
    37   18   45 1
    38   19   20 1
    39   19   46 1
    40   19   59 1
    41   20   21 1
    42   20   47 1
    43   20   48 1
    44   21   49 1
    45   21   50 1
    46   22   23 2
    47   22   24 1
    48   24   25 1
    49   24   30 1
    50   24   26 1
    51   26   27 1
    52   26   51 1
    53   26   52 1
    54   27   28 1
    55   27   53 1
    56   27   54 1
    57   28   29 2
    58   28   55 1
    59   29   30 1
    60   29   56 1
    61   30   57 1
    62   30   58 1
@<TRIPOS>MOLECULE
ZINC55855018
   43    45     0     0     0
SMALL
USER_CHARGES

@<TRIPOS>ATOM
      1 C1         -0.5050    2.6839    1.4859 C.3       1 <0>        -0.1250
      2 C2         -0.4932    1.2082    1.1810 C.2       1 <0>         0.0800
      3 C3         -0.5838    0.7995   -0.0843 C.2       1 <0>        -0.1560
      4 S1         -0.5251   -0.9760    0.0995 S.3       1 <0>         0.3222
      5 C4         -0.3826   -1.0210    1.8731 C.cat     1 <0>         0.3090
      6 N1         -0.3834    0.3059    2.2117 N.am      1 <0>        -0.4299
      7 C5         -0.2789    0.5948    3.5432 C.2       1 <0>         0.5261
      8 O1         -0.2777    1.7567    3.9183 O.2       1 <0>        -0.4246
      9 C6         -0.1741   -0.4395    4.4737 C.2       1 <0>        -0.1966
     10 C7         -0.1765   -1.7494    4.0439 C.2       1 <0>         0.1657
     11 N2         -0.2892   -1.9971    2.7414 N.pl3     1 <0>        -0.4852
     12 C8         -0.0638   -2.8811    5.0327 C.3       1 <0>         0.1587
     13 N3         -1.3012   -3.6652    5.0205 N.pl3     1 <0>        -0.7588
     14 C9         -1.4339   -4.7739    5.8603 C.ar      1 <0>         0.1899
     15 C10        -0.3940   -5.1296    6.7116 C.ar      1 <0>        -0.1602
     16 C11        -0.5207   -6.2251    7.5446 C.ar      1 <0>        -0.0839
     17 C12        -1.6804   -6.9734    7.5368 C.ar      1 <0>        -0.1220
     18 C13        -2.7304   -6.6248    6.6859 C.ar      1 <0>        -0.0939
     19 C14        -2.6049   -5.5160    5.8489 C.ar      1 <0>        -0.0828
     20 C15        -3.7361   -5.1294    4.9313 C.3       1 <0>        -0.1129
     21 C16        -3.9736   -7.4251    6.6754 C.2       1 <0>         0.5535
     22 O2         -4.8409   -7.1900    5.8569 O.2       1 <0>        -0.5281
     23 N4         -4.1452   -8.4154    7.5734 N.am      1 <0>        -0.7279
     24 C17        -5.3770   -9.2084    7.5630 C.3       1 <0>         0.0848
     25 H1          0.5158    3.0658    1.4732 H         1 <0>         0.1049
     26 H2         -1.0975    3.2055    0.7342 H         1 <0>         0.1081
     27 H3         -0.9420    2.8479    2.4709 H         1 <0>         0.1108
     28 H4         -0.6706    1.3883   -0.9855 H         1 <0>         0.2501
     29 H5         -0.0910   -0.2147    5.5268 H         1 <0>         0.2099
     30 H6          0.7747   -3.5212    4.7582 H         1 <0>         0.1079
     31 H7          0.0999   -2.4761    6.0313 H         1 <0>         0.1192
     32 H8         -2.0283   -3.4147    4.4294 H         1 <0>         0.4027
     33 H9          0.5161   -4.5481    6.7219 H         1 <0>         0.1275
     34 H10         0.2907   -6.4968    8.2035 H         1 <0>         0.1347
     35 H11        -1.7753   -7.8290    8.1890 H         1 <0>         0.1286
     36 H12        -3.6861   -5.7272    4.0212 H         1 <0>         0.0747
     37 H13        -4.6875   -5.3087    5.4320 H         1 <0>         0.1003
     38 H14        -3.6527   -4.0728    4.6770 H         1 <0>         0.0433
     39 H15        -3.4531   -8.6031    8.2266 H         1 <0>         0.4029
     40 H16        -5.3347   -9.9558    8.3553 H         1 <0>         0.0804
     41 H17        -6.2324   -8.5530    7.7271 H         1 <0>         0.0637
     42 H18        -5.4804   -9.7063    6.5989 H         1 <0>         0.0638
     43 H19        -0.2913   -2.9153    2.4289 H         1 <0>         0.4644
@<TRIPOS>BOND
     1    1    2 1
     2    1   25 1
     3    1   26 1
     4    1   27 1
     5    2    6 1
     6    2    3 2
     7    3    4 1
     8    3   28 1
     9    4    5 1
    10    5   11 2
    11    5    6 1
    12    6    7 am
    13    7    8 2
    14    7    9 1
    15    9   10 2
    16    9   29 1
    17   10   11 1
    18   10   12 1
    19   11   43 1
    20   12   13 1
    21   12   30 1
    22   12   31 1
    23   13   14 1
    24   13   32 1
    25   14   19 ar
    26   14   15 ar
    27   15   16 ar
    28   15   33 1
    29   16   17 ar
    30   16   34 1
    31   17   18 ar
    32   17   35 1
    33   18   19 ar
    34   18   21 1
    35   19   20 1
    36   20   36 1
    37   20   37 1
    38   20   38 1
    39   21   22 2
    40   21   23 am
    41   23   24 1
    42   23   39 1
    43   24   40 1
    44   24   41 1
    45   24   42 1
@<TRIPOS>MOLECULE
ZINC58328431
   54    57     0     0     0
SMALL
USER_CHARGES

@<TRIPOS>ATOM
      1 C1         -0.0167    1.3786    0.0115 C.ar      1 <0>        -0.1712
      2 C2          0.0020   -0.0039   -0.0114 C.ar      1 <0>        -0.0710
      3 C3          1.2063   -0.6796   -0.0274 C.ar      1 <0>        -0.1982
      4 C4          2.3998    0.0311   -0.0206 C.ar      1 <0>         0.2101
      5 C5          2.3775    1.4198    0.0024 C.ar      1 <0>        -0.1965
      6 C6          1.1696    2.0892    0.0184 C.ar      1 <0>        -0.0702
      7 N1          3.6196   -0.6492   -0.0363 N.pl3     1 <0>        -0.6365
      8 C7          4.8906    0.0825   -0.1489 C.3       1 <0>         0.1256
      9 C8          5.7107   -0.5385   -1.2847 C.3       1 <0>         0.0416
     10 N2          5.8440   -1.9833   -1.0549 N.3       1 <0>        -0.5279
     11 C9          4.5356   -2.6505   -1.0847 C.3       1 <0>         0.0303
     12 C10         3.6676   -2.1156    0.0654 C.3       1 <0>         0.1259
     13 C11         6.7655   -2.5880   -2.0261 C.3       1 <0>         0.0252
     14 C12         7.0731   -4.0276   -1.6092 C.3       1 <0>        -0.0108
     15 N3          7.9946   -4.6323   -2.5803 N.4       1 <0>        -0.5084
     16 C13         8.2899   -6.0146   -2.1801 C.3       1 <0>         0.0047
     17 C14         9.2497   -6.6444   -3.1915 C.3       1 <0>        -0.1539
     18 H1          8.8261   -6.5622   -4.1925 H         1 <0>         0.1123
     19 C15        10.5934   -5.9083   -3.1451 C.3       1 <0>         0.1149
     20 N4         11.4796   -6.4849   -4.1755 N.pl3     1 <0>        -0.7344
     21 C16        11.4798   -7.8782   -4.2760 C.2       1 <0>         0.3380
     22 C17        12.3277   -8.6919   -4.9423 C.2       1 <0>        -0.3111
     23 C18        11.9037  -10.0103   -4.7307 C.2       1 <0>         0.0827
     24 N5         10.8395   -9.9848   -3.9650 N.2       1 <0>        -0.2928
     25 N6         10.5482   -8.6550   -3.6639 N.pl3     1 <0>        -0.4081
     26 C19         9.4556   -8.1235   -2.8455 C.3       1 <0>         0.1485
     27 H2         -0.9599    1.9046    0.0194 H         1 <0>         0.1218
     28 H3         -0.9263   -0.5559   -0.0163 H         1 <0>         0.1231
     29 H4          1.2202   -1.7594   -0.0449 H         1 <0>         0.1198
     30 H5          3.3036    1.9754    0.0081 H         1 <0>         0.1212
     31 H6          1.1515    3.1689    0.0362 H         1 <0>         0.1238
     32 H7          4.6912    1.1306   -0.3720 H         1 <0>         0.0937
     33 H8          5.4430    0.0031    0.7874 H         1 <0>         0.0724
     34 H9          5.2049   -0.3664   -2.2348 H         1 <0>         0.0483
     35 H10         6.7000   -0.0816   -1.3109 H         1 <0>         0.0924
     36 H11         4.0461   -2.4490   -2.0376 H         1 <0>         0.0492
     37 H12         4.6726   -3.7253   -0.9658 H         1 <0>         0.0837
     38 H13         4.1046   -2.4022    1.0219 H         1 <0>         0.0719
     39 H14         2.6592   -2.5215   -0.0158 H         1 <0>         0.0927
     40 H15         6.3047   -2.5863   -3.0139 H         1 <0>         0.0585
     41 H16         7.6908   -2.0128   -2.0558 H         1 <0>         0.0996
     42 H17         7.5338   -4.0293   -0.6213 H         1 <0>         0.1457
     43 H18         6.1477   -4.6029   -1.5795 H         1 <0>         0.1345
     44 H19         7.5681   -4.6308   -3.4947 H         1 <0>         0.4299
     45 H20         8.7506   -6.0162   -1.1922 H         1 <0>         0.1446
     46 H21         7.3645   -6.5898   -2.1504 H         1 <0>         0.1455
     47 H22        10.4376   -4.8487   -3.3474 H         1 <0>         0.0818
     48 H23        11.0457   -6.0336   -2.1613 H         1 <0>         0.0797
     49 H24        12.0294   -5.9287   -4.7493 H         1 <0>         0.4288
     50 H25        13.1783   -8.3821   -5.5313 H         1 <0>         0.1522
     51 H26        12.3736  -10.8969   -5.1303 H         1 <0>         0.1916
     52 H27         9.7088   -8.2197   -1.7897 H         1 <0>         0.0914
     53 H28         8.5410   -8.6782   -3.0553 H         1 <0>         0.1064
     54 H29         8.8512   -4.0998   -2.6078 H         1 <0>         0.4272
@<TRIPOS>BOND
     1    1    6 ar
     2    1    2 ar
     3    1   27 1
     4    2    3 ar
     5    2   28 1
     6    3    4 ar
     7    3   29 1
     8    4    5 ar
     9    4    7 1
    10    5    6 ar
    11    5   30 1
    12    6   31 1
    13    7   12 1
    14    7    8 1
    15    8    9 1
    16    8   32 1
    17    8   33 1
    18    9   10 1
    19    9   34 1
    20    9   35 1
    21   10   11 1
    22   10   13 1
    23   11   12 1
    24   11   36 1
    25   11   37 1
    26   12   38 1
    27   12   39 1
    28   13   14 1
    29   13   40 1
    30   13   41 1
    31   14   15 1
    32   14   42 1
    33   14   43 1
    34   15   16 1
    35   15   44 1
    36   15   54 1
    37   16   17 1
    38   16   45 1
    39   16   46 1
    40   17   18 1
    41   17   26 1
    42   17   19 1
    43   19   20 1
    44   19   47 1
    45   19   48 1
    46   20   21 1
    47   20   49 1
    48   21   25 1
    49   21   22 2
    50   22   23 1
    51   22   50 1
    52   23   24 2
    53   23   51 1
    54   24   25 1
    55   25   26 1
    56   26   52 1
    57   26   53 1
@<TRIPOS>MOLECULE
ZINC67559293
   53    56     0     0     0
SMALL
USER_CHARGES

@<TRIPOS>ATOM
      1 C1         -0.0184    1.5028    0.0103 C.3       1 <0>        -0.1129
      2 C2          0.0021   -0.0041    0.0020 C.ar      1 <0>        -0.1137
      3 C3          0.0056   -0.6856   -1.2090 C.ar      1 <0>        -0.0640
      4 C4          0.0240   -2.0510   -1.2434 C.ar      1 <0>        -0.1310
      5 C5          0.0395   -2.7744   -0.0533 C.ar      1 <0>         0.1218
      6 C6          0.0359   -2.0856    1.1749 C.ar      1 <0>        -0.1628
      7 C7          0.0226   -0.6862    1.1838 C.ar      1 <0>        -0.0482
      8 C8          0.0539   -3.1063    2.2176 C.2       1 <0>         0.0586
      9 N1          0.0666   -4.2707    1.6342 N.2       1 <0>        -0.2221
     10 N2          0.0583   -4.1119    0.2446 N.pl3     1 <0>        -0.3961
     11 C9          0.0682   -5.2008   -0.7354 C.3       1 <0>         0.1049
     12 C10         0.0573   -2.8576    3.7039 C.3       1 <0>         0.2153
     13 N3         -1.3227   -2.7951    4.1917 N.pl3     1 <0>        -0.6996
     14 C11        -1.5728   -2.5736    5.5362 C.ar      1 <0>         0.4546
     15 C12        -0.5178   -2.4027    6.4354 C.ar      1 <0>        -0.2971
     16 C13        -0.8190   -2.1847    7.7651 C.ar      1 <0>         0.1980
     17 N4         -2.0893   -2.1449    8.1425 N.ar      1 <0>        -0.5582
     18 C14        -3.0623   -2.3099    7.2696 C.ar      1 <0>         0.3801
     19 N5         -2.8211   -2.5149    5.9904 N.ar      1 <0>        -0.5681
     20 C15        -4.4909   -2.2569    7.7463 C.3       1 <0>        -0.0925
     21 C16         0.2830   -1.9947    8.7754 C.3       1 <0>        -0.0528
     22 H1         -0.0936   -1.4191    9.6209 H         1 <0>         0.1178
     23 C17         1.4492   -1.2448    8.1251 C.3       1 <0>        -0.1346
     24 C18         2.5937   -1.1260    9.1356 C.3       1 <0>        -0.1455
     25 C19         2.9956   -2.5243    9.6096 C.3       1 <0>        -0.0104
     26 N6          1.8458   -3.1787   10.2452 N.4       1 <0>        -0.5029
     27 C20         0.7698   -3.3608    9.2635 C.3       1 <0>         0.0002
     28 H2          1.0042    1.8801    0.0026 H         1 <0>         0.0713
     29 H3         -0.5455    1.8639   -0.8728 H         1 <0>         0.0695
     30 H4         -0.5286    1.8543    0.9071 H         1 <0>         0.0657
     31 H5         -0.0067   -0.1289   -2.1344 H         1 <0>         0.1345
     32 H6          0.0262   -2.5685   -2.1914 H         1 <0>         0.1297
     33 H7          0.0245   -0.1491    2.1207 H         1 <0>         0.1251
     34 H8          1.0982   -5.4574   -0.9830 H         1 <0>         0.0756
     35 H9         -0.4324   -6.0729   -0.3146 H         1 <0>         0.0912
     36 H10        -0.4539   -4.8823   -1.6377 H         1 <0>         0.0898
     37 H11         0.5840   -3.6686    4.2068 H         1 <0>         0.0864
     38 H12         0.5597   -1.9132    3.9131 H         1 <0>         0.0914
     39 H13        -2.0613   -2.9088    3.5733 H         1 <0>         0.4160
     40 H14         0.5078   -2.4404    6.0991 H         1 <0>         0.1438
     41 H15        -4.8545   -1.2309    7.6911 H         1 <0>         0.0923
     42 H16        -5.1086   -2.8957    7.1150 H         1 <0>         0.0901
     43 H17        -4.5430   -2.6059    8.7776 H         1 <0>         0.0896
     44 H18         1.7925   -1.7943    7.2486 H         1 <0>         0.0879
     45 H19         1.1213   -0.2490    7.8270 H         1 <0>         0.0991
     46 H20         3.4483   -0.6424    8.6625 H         1 <0>         0.1167
     47 H21         2.2656   -0.5327    9.9891 H         1 <0>         0.0918
     48 H22         3.3239   -3.1166    8.7554 H         1 <0>         0.1314
     49 H23         3.8105   -2.4433   10.3291 H         1 <0>         0.1359
     50 H24         2.1281   -4.0786   10.6039 H         1 <0>         0.4345
     51 H25        -0.0584   -3.8968    9.7271 H         1 <0>         0.1383
     52 H26         1.1452   -3.9359    8.4171 H         1 <0>         0.1332
     53 H27         1.5117   -2.6056   11.0055 H         1 <0>         0.4300
@<TRIPOS>BOND
     1    1    2 1
     2    1   28 1
     3    1   29 1
     4    1   30 1
     5    2    7 ar
     6    2    3 ar
     7    3    4 ar
     8    3   31 1
     9    4    5 ar
    10    4   32 1
    11    5   10 1
    12    5    6 ar
    13    6    7 ar
    14    6    8 1
    15    7   33 1
    16    8    9 2
    17    8   12 1
    18    9   10 1
    19   10   11 1
    20   11   34 1
    21   11   35 1
    22   11   36 1
    23   12   13 1
    24   12   37 1
    25   12   38 1
    26   13   14 1
    27   13   39 1
    28   14   19 ar
    29   14   15 ar
    30   15   16 ar
    31   15   40 1
    32   16   17 ar
    33   16   21 1
    34   17   18 ar
    35   18   19 ar
    36   18   20 1
    37   20   41 1
    38   20   42 1
    39   20   43 1
    40   21   22 1
    41   21   27 1
    42   21   23 1
    43   23   24 1
    44   23   44 1
    45   23   45 1
    46   24   25 1
    47   24   46 1
    48   24   47 1
    49   25   26 1
    50   25   48 1
    51   25   49 1
    52   26   27 1
    53   26   50 1
    54   26   53 1
    55   27   51 1
    56   27   52 1
@<TRIPOS>MOLECULE
ZINC31161979
   53    56     0     0     0
SMALL
USER_CHARGES
(acetoxymethyl-dihydroxy-dimethyl-spiro[BLAH-BLAH,2'-oxirane]yl) acetate
@<TRIPOS>ATOM
      1 C1         -1.9386    4.7804    3.4438 C.3       1 <0>        -0.1219
      2 C2         -0.5830    4.2499    3.0539 C.2       1 <0>        -0.1226
      3 C3         -0.5276    3.3832    2.0946 C.2       1 <0>        -0.1199
      4 C4          0.7517    2.7757    1.5885 C.3       1 <0>         0.1013
      5 H1          0.6245    1.7071    1.3608 H         1 <0>         0.1215
      6 C5          1.8562    2.9667    2.6274 C.3       1 <0>        -0.0670
      7 C6          1.8966    4.4408    3.0383 C.3       1 <0>        -0.1138
      8 C7          0.6107    4.7629    3.8041 C.3       1 <0>         0.1242
      9 H2          0.5049    5.8470    3.9576 H         1 <0>         0.1046
     10 O1          0.6611    4.1371    5.1133 O.3       1 <0>        -0.3384
     11 C8          0.1475    4.8315    6.1408 C.2       1 <0>         0.4546
     12 O2         -0.3070    5.9357    5.9566 O.2       1 <0>        -0.5082
     13 C9          0.1377    4.2338    7.5242 C.3       1 <0>        -0.1550
     14 C10         3.2120    2.5642    2.0181 C.3       1 <0>        -0.0125
     15 C11         3.0017    1.1690    1.3716 C.3       1 <0>         0.1229
     16 H3          2.3737    0.4913    1.9685 H         1 <0>         0.0742
     17 C12         2.4421    1.4358   -0.0392 C.3       1 <0>         0.0559
     18 H4          3.0184    0.9420   -0.8355 H         1 <0>         0.0792
     19 C13         2.3664    2.9761   -0.1896 C.3       1 <0>         0.0829
     20 H5          2.4468    3.3595   -1.2175 H         1 <0>         0.1328
     21 C14         3.4317    3.4804    0.8004 C.3       1 <0>        -0.0496
     22 C15         3.8106    4.9403    0.9280 C.3       1 <0>        -0.0300
     23 O3          4.7009    3.9485    0.4020 O.3       1 <0>        -0.2812
     24 O4          1.0944    3.3877    0.3441 O.3       1 <0>        -0.3501
     25 O5          1.1382    0.8650   -0.1666 O.3       1 <0>        -0.5866
     26 O6          4.2474    0.4742    1.2839 O.3       1 <0>        -0.5851
     27 C16         4.3575    2.5932    3.0319 C.3       1 <0>        -0.1216
     28 C17         1.5690    2.1004    3.8553 C.3       1 <0>         0.0833
     29 O7          2.5432    2.3918    4.8918 O.3       1 <0>        -0.3341
     30 C18         2.4969    1.6374    6.0011 C.2       1 <0>         0.4573
     31 O8          1.7291    0.7069    6.0672 O.2       1 <0>        -0.5149
     32 C19         3.4026    1.9511    7.1640 C.3       1 <0>        -0.1543
     33 H6         -2.7097    4.3164    2.8113 H         1 <0>         0.0680
     34 H7         -1.9589    5.8715    3.3058 H         1 <0>         0.0739
     35 H8         -2.1366    4.5405    4.4989 H         1 <0>         0.0626
     36 H9         -1.4520    3.0507    1.5997 H         1 <0>         0.1253
     37 H10         2.7720    4.6186    3.6802 H         1 <0>         0.0944
     38 H11         1.9674    5.0703    2.1390 H         1 <0>         0.0980
     39 H12        -0.3190    4.9454    8.2278 H         1 <0>         0.1048
     40 H13         1.1698    4.0190    7.8381 H         1 <0>         0.0977
     41 H14        -0.4449    3.3008    7.5164 H         1 <0>         0.1005
     42 H15         3.1184    5.5523    0.3310 H         1 <0>         0.1250
     43 H16         3.7510    5.2437    1.9837 H         1 <0>         0.1270
     44 H17         0.5862    0.9603   -1.1133 H         1 <0>         0.4172
     45 H18         4.2846   -0.5355    0.8489 H         1 <0>         0.4106
     46 H19         5.2936    2.2971    2.5359 H         1 <0>         0.0690
     47 H20         4.1394    1.8929    3.8517 H         1 <0>         0.0757
     48 H21         4.4630    3.6105    3.4370 H         1 <0>         0.0592
     49 H22         0.5582    2.3192    4.2301 H         1 <0>         0.0940
     50 H23         1.6352    1.0380    3.5781 H         1 <0>         0.0687
     51 H24         3.2218    1.2298    7.9745 H         1 <0>         0.1021
     52 H25         3.1953    2.9690    7.5260 H         1 <0>         0.0984
     53 H26         4.4517    1.8836    6.8403 H         1 <0>         0.1003
@<TRIPOS>BOND
     1    1    2 1
     2    1   33 1
     3    1   34 1
     4    1   35 1
     5    2    8 1
     6    2    3 2
     7    3    4 1
     8    3   36 1
     9    4    5 1
    10    4   24 1
    11    4    6 1
    12    6    7 1
    13    6   14 1
    14    6   28 1
    15    7    8 1
    16    7   37 1
    17    7   38 1
    18    8    9 1
    19    8   10 1
    20   10   11 1
    21   11   12 2
    22   11   13 1
    23   13   39 1
    24   13   40 1
    25   13   41 1
    26   14   21 1
    27   14   15 1
    28   14   27 1
    29   15   16 1
    30   15   17 1
    31   15   26 1
    32   17   18 1
    33   17   19 1
    34   17   25 1
    35   19   20 1
    36   19   21 1
    37   19   24 1
    38   21   23 1
    39   21   22 1
    40   22   23 1
    41   22   42 1
    42   22   43 1
    43   25   44 1
    44   26   45 1
    45   27   46 1
    46   27   47 1
    47   27   48 1
    48   28   29 1
    49   28   49 1
    50   28   50 1
    51   29   30 1
    52   30   31 2
    53   30   32 1
    54   32   51 1
    55   32   52 1
    56   32   53 1
@<TRIPOS>MOLECULE
ZINC40094587
   49    52     0     0     0
SMALL
USER_CHARGES

@<TRIPOS>ATOM
      1 C1         -0.3509    1.5106    0.3171 C.2       1 <0>        -0.1371
      2 C2          0.9994    1.8792    0.2124 C.2       1 <0>        -0.0919
      3 C3          1.7201    0.7376    0.1545 C.2       1 <0>        -0.5571
      4 O1          0.8817   -0.3049    0.2182 O.3       1 <0>        -0.1082
      5 C4         -0.3862    0.1456    0.3177 C.2       1 <0>        -0.0273
      6 C5         -1.5911   -0.6853    0.4111 C.2       1 <0>         0.6055
      7 O2         -2.6861   -0.1615    0.4979 O.2       1 <0>        -0.5076
      8 N1         -1.4856   -2.0289    0.4007 N.am      1 <0>        -0.8365
      9 S1          3.4738    0.6370    0.0167 S.o2      1 <0>         2.7144
     10 O3          3.7639   -0.6288   -0.5601 O.2       1 <0>        -0.9286
     11 O4          3.9059    1.8578   -0.5682 O.2       1 <0>        -0.9220
     12 N2          4.0849    0.6072    1.5556 N.pl3     1 <0>        -0.9878
     13 C6          4.4273    1.8570    2.2488 C.3       1 <0>         0.1024
     14 C7          3.6744    1.8988    3.5843 C.3       1 <0>         0.0940
     15 N3          3.8835    0.6220    4.2814 N.am      1 <0>        -0.6129
     16 C8          3.5411   -0.6278    3.5882 C.3       1 <0>         0.0887
     17 C9          4.2888   -0.6693    2.2548 C.3       1 <0>         0.1014
     18 C10         4.3809    0.5977    5.5339 C.2       1 <0>         0.5300
     19 O5          4.7445    1.6271    6.0620 O.2       1 <0>        -0.5298
     20 C11         4.4850   -0.7086    6.2780 C.3       1 <0>        -0.1149
     21 H1          4.8443   -1.4953    5.6147 H         1 <0>         0.0942
     22 C12         5.4241   -0.5610    7.4970 C.3       1 <0>        -0.1120
     23 C13         4.5222   -0.8748    8.7297 C.3       1 <0>        -0.1020
     24 H2          5.0454   -1.1553    9.6438 H         1 <0>         0.1001
     25 C14         3.5695    0.3547    8.8395 C.3       1 <0>        -0.1190
     26 C15         2.6254    0.2275    7.6220 C.3       1 <0>        -0.1261
     27 C16         3.1035   -1.0993    6.8863 C.3       1 <0>        -0.0926
     28 H3          2.3941   -1.5613    6.1997 H         1 <0>         0.1030
     29 C17         3.5633   -1.9572    8.1194 C.3       1 <0>        -0.1215
     30 H4         -1.1975    2.1773    0.3881 H         1 <0>         0.1752
     31 H5          1.3892    2.8861    0.1836 H         1 <0>         0.1772
     32 H6         -0.6128   -2.4463    0.3315 H         1 <0>         0.4102
     33 H7         -2.2826   -2.5784    0.4625 H         1 <0>         0.4154
     34 H8          5.5011    1.8908    2.4329 H         1 <0>         0.0900
     35 H9          4.1318    2.7083    1.6355 H         1 <0>         0.1066
     36 H10         4.0579    2.7161    4.1950 H         1 <0>         0.1097
     37 H11         2.6101    2.0448    3.3999 H         1 <0>         0.0727
     38 H12         3.8366   -1.4791    4.2015 H         1 <0>         0.1046
     39 H13         2.4673   -0.6617    3.4041 H         1 <0>         0.0759
     40 H14         3.9018   -1.4861    1.6454 H         1 <0>         0.1091
     41 H15         5.3525   -0.8195    2.4394 H         1 <0>         0.0896
     42 H16         6.2439   -1.2765    7.4340 H         1 <0>         0.0679
     43 H17         5.8104    0.4565    7.5581 H         1 <0>         0.0875
     44 H18         3.0000    0.3124    9.7679 H         1 <0>         0.0611
     45 H19         4.1386    1.2826    8.7837 H         1 <0>         0.0709
     46 H20         1.5919    0.1227    7.9520 H         1 <0>         0.0625
     47 H21         2.7305    1.0929    6.9677 H         1 <0>         0.0684
     48 H22         4.1015   -2.8543    7.8135 H         1 <0>         0.0726
     49 H23         2.7338   -2.1913    8.7867 H         1 <0>         0.0739
@<TRIPOS>BOND
     1    1    5 2
     2    1    2 1
     3    1   30 1
     4    2    3 2
     5    2   31 1
     6    3    4 1
     7    3    9 1
     8    4    5 1
     9    5    6 1
    10    6    7 2
    11    6    8 am
    12    8   32 1
    13    8   33 1
    14    9   10 2
    15    9   11 2
    16    9   12 1
    17   12   17 1
    18   12   13 1
    19   13   14 1
    20   13   34 1
    21   13   35 1
    22   14   15 1
    23   14   36 1
    24   14   37 1
    25   15   16 1
    26   15   18 am
    27   16   17 1
    28   16   38 1
    29   16   39 1
    30   17   40 1
    31   17   41 1
    32   18   19 2
    33   18   20 1
    34   20   21 1
    35   20   27 1
    36   20   22 1
    37   22   23 1
    38   22   42 1
    39   22   43 1
    40   23   24 1
    41   23   29 1
    42   23   25 1
    43   25   26 1
    44   25   44 1
    45   25   45 1
    46   26   27 1
    47   26   46 1
    48   26   47 1
    49   27   28 1
    50   27   29 1
    51   29   48 1
    52   29   49 1
@<TRIPOS>MOLECULE
ZINC50841784
   52    54     0     0     0
SMALL
USER_CHARGES

@<TRIPOS>ATOM
      1 C1          0.0147    1.5182    0.0107 C.3       1 <0>        -0.1266
      2 C2          0.0267    0.0112    0.0062 C.ar      1 <0>        -0.0269
      3 C3          0.0198   -0.6764   -1.1930 C.ar      1 <0>        -0.1423
      4 C4          0.0308   -2.0587   -1.1972 C.ar      1 <0>        -0.0160
      5 C5          0.0492   -2.7534   -0.0023 C.ar      1 <0>        -0.6851
      6 C6          0.0569   -2.0658    1.1969 C.ar      1 <0>        -0.0154
      7 C7          0.0502   -0.6834    1.2011 C.ar      1 <0>        -0.1417
      8 S1          0.0620   -4.5153   -0.0076 S.o2      1 <0>         2.6906
      9 O1         -0.4720   -4.9291    1.2425 O.2       1 <0>        -0.9529
     10 O2         -0.4996   -4.9218   -1.2480 O.2       1 <0>        -0.9515
     11 N1          1.6474   -4.9933   -0.0266 N.pl3     1 <0>        -0.9974
     12 C8          2.3518   -5.1998   -1.2994 C.3       1 <0>         0.1132
     13 C9          2.9648   -6.6037   -1.3016 C.3       1 <0>        -0.1297
     14 C10         3.8450   -6.7737   -0.0613 C.3       1 <0>        -0.1069
     15 C11         2.9891   -6.6223    1.1984 C.3       1 <0>        -0.1214
     16 H1          2.1929   -7.3666    1.1888 H         1 <0>         0.1015
     17 C12         2.3781   -5.2131    1.2290 C.3       1 <0>         0.1350
     18 C13         3.8503   -6.8227    2.4187 C.2       1 <0>         0.5300
     19 O3          4.4769   -5.8915    2.8783 O.2       1 <0>        -0.5301
     20 N2          3.9243   -8.0367    2.9994 N.am      1 <0>        -0.6146
     21 C14         3.2726   -9.2079    2.3919 C.3       1 <0>         0.0641
     22 C15         4.3000  -10.3424    2.3060 C.3       1 <0>         0.0472
     23 O4          4.8909  -10.5407    3.5926 O.3       1 <0>        -0.3477
     24 C16         5.6192   -9.4123    4.0825 C.3       1 <0>         0.0600
     25 H2          6.3988   -9.1447    3.3693 H         1 <0>         0.0911
     26 C17         4.6641   -8.2313    4.2564 C.3       1 <0>         0.0881
     27 C18         6.2467   -9.7554    5.4090 C.2       1 <0>         0.5271
     28 O5          6.0130  -10.8244    5.9319 O.2       1 <0>        -0.5129
     29 N3          7.0676   -8.8743    6.0142 N.am      1 <0>        -0.8496
     30 H3          1.0393    1.8897   -0.0037 H         1 <0>         0.0805
     31 H4         -0.5154    1.8800   -0.8703 H         1 <0>         0.0739
     32 H5         -0.4885    1.8748    0.9094 H         1 <0>         0.0738
     33 H6          0.0055   -0.1336   -2.1266 H         1 <0>         0.1338
     34 H7          0.0248   -2.5959   -2.1341 H         1 <0>         0.1398
     35 H8          0.0709   -2.6085    2.1305 H         1 <0>         0.1394
     36 H9          0.0601   -0.1462    2.1379 H         1 <0>         0.1339
     37 H10         1.6475   -5.1072   -2.1260 H         1 <0>         0.0981
     38 H11         3.1417   -4.4561   -1.4046 H         1 <0>         0.0747
     39 H12         2.1688   -7.3482   -1.2876 H         1 <0>         0.0738
     40 H13         3.5704   -6.7348   -2.1983 H         1 <0>         0.0859
     41 H14         4.3019   -7.7632   -0.0731 H         1 <0>         0.0715
     42 H15         4.6259   -6.0133   -0.0632 H         1 <0>         0.0777
     43 H16         3.1701   -4.4705    1.3257 H         1 <0>         0.0887
     44 H17         1.6911   -5.1294    2.0710 H         1 <0>         0.0975
     45 H18         2.4308   -9.5210    3.0094 H         1 <0>         0.0871
     46 H19         2.9209   -8.9547    1.3918 H         1 <0>         0.1029
     47 H20         3.8041  -11.2593    1.9879 H         1 <0>         0.1181
     48 H21         5.0749  -10.0781    1.5864 H         1 <0>         0.0611
     49 H22         5.2334   -7.3317    4.4904 H         1 <0>         0.1095
     50 H23         3.9647   -8.4444    5.0648 H         1 <0>         0.0856
     51 H24         7.2545   -8.0193    5.5959 H         1 <0>         0.4037
     52 H25         7.4715   -9.0951    6.8680 H         1 <0>         0.4098
@<TRIPOS>BOND
     1    1    2 1
     2    1   30 1
     3    1   31 1
     4    1   32 1
     5    2    7 ar
     6    2    3 ar
     7    3    4 ar
     8    3   33 1
     9    4    5 ar
    10    4   34 1
    11    5    6 ar
    12    5    8 1
    13    6    7 ar
    14    6   35 1
    15    7   36 1
    16    8    9 2
    17    8   10 2
    18    8   11 1
    19   11   17 1
    20   11   12 1
    21   12   13 1
    22   12   37 1
    23   12   38 1
    24   13   14 1
    25   13   39 1
    26   13   40 1
    27   14   15 1
    28   14   41 1
    29   14   42 1
    30   15   16 1
    31   15   17 1
    32   15   18 1
    33   17   43 1
    34   17   44 1
    35   18   19 2
    36   18   20 am
    37   20   26 1
    38   20   21 1
    39   21   22 1
    40   21   45 1
    41   21   46 1
    42   22   23 1
    43   22   47 1
    44   22   48 1
    45   23   24 1
    46   24   25 1
    47   24   26 1
    48   24   27 1
    49   26   49 1
    50   26   50 1
    51   27   28 2
    52   27   29 am
    53   29   51 1
    54   29   52 1
@<TRIPOS>MOLECULE
ZINC66241507
   47    49     0     0     0
SMALL
USER_CHARGES

@<TRIPOS>ATOM
      1 C1          0.5372    1.3712    0.2255 C.3       1 <0>        -0.1674
      2 C2         -0.0098   -0.0527    0.1060 C.3       1 <0>         0.1127
      3 N1          0.6280   -0.7273   -1.0273 N.am      1 <0>        -0.6121
      4 C3          1.8672   -1.4825   -0.8272 C.3       1 <0>         0.0665
      5 C4          0.0746   -0.6531   -2.2540 C.2       1 <0>         0.5129
      6 O1         -0.8959    0.0501   -2.4400 O.2       1 <0>        -0.5199
      7 C5          0.6618   -1.4439   -3.3946 C.3       1 <0>         0.1171
      8 H1          0.8989   -2.4447   -3.0336 H         1 <0>         0.1152
      9 C6          1.9765   -0.7587   -3.8421 C.3       1 <0>        -0.0631
     10 S1          1.8587   -1.0052   -5.6703 S.3       1 <0>        -0.2532
     11 C7          0.0137   -0.9991   -5.7614 C.3       1 <0>         0.1529
     12 N2         -0.3396   -1.5564   -4.4415 N.am      1 <0>        -0.5981
     13 C8         -1.5332   -2.1421   -4.2206 C.2       1 <0>         0.5835
     14 O2         -1.7623   -2.6703   -3.1498 O.2       1 <0>        -0.5106
     15 C9         -2.5625   -2.1424   -5.2791 C.ar      1 <0>        -0.1321
     16 C10        -3.4792   -3.1934   -5.3641 C.ar      1 <0>        -0.0327
     17 C11        -4.4382   -3.1902   -6.3522 C.ar      1 <0>        -0.1099
     18 C12        -4.4950   -2.1423   -7.2651 C.ar      1 <0>         0.1847
     19 C13        -3.5841   -1.0945   -7.1834 C.ar      1 <0>        -0.1527
     20 C14        -2.6258   -1.0887   -6.1945 C.ar      1 <0>        -0.0681
     21 N3         -5.4692   -2.1425   -8.2668 N.pl3     1 <0>        -0.3487
     22 C15        -6.0941   -1.0456   -8.7690 C.2       1 <0>         0.4336
     23 C16        -6.9835   -1.4938   -9.7416 C.2       1 <0>        -0.2545
     24 C17        -6.8621   -2.9020   -9.7974 C.2       1 <0>         0.1434
     25 N4         -5.9636   -3.2719   -8.9285 N.2       1 <0>        -0.2863
     26 C18        -7.8564   -0.6825  -10.5356 C.1       1 <0>         0.2928
     27 N5         -8.5489   -0.0389  -11.1655 N.1       1 <0>        -0.4366
     28 N6         -5.8869    0.2652   -8.3865 N.pl3     1 <0>        -0.8320
     29 H2          1.6149    1.3343    0.3844 H         1 <0>         0.0562
     30 H3          0.3237    1.9206   -0.6913 H         1 <0>         0.0586
     31 H4          0.0626    1.8731    1.0687 H         1 <0>         0.0683
     32 H5          0.2037   -0.6021    1.0229 H         1 <0>         0.0802
     33 H6         -1.0876   -0.0157   -0.0529 H         1 <0>         0.0834
     34 H7          1.6265   -2.5100   -0.5545 H         1 <0>         0.0637
     35 H8          2.4484   -1.4780   -1.7493 H         1 <0>         0.0724
     36 H9          2.4488   -1.0214   -0.0289 H         1 <0>         0.0796
     37 H10         1.9789    0.3005   -3.5845 H         1 <0>         0.1098
     38 H11         2.8483   -1.2663   -3.4293 H         1 <0>         0.1371
     39 H12        -0.3699    0.0151   -5.8726 H         1 <0>         0.1053
     40 H13        -0.3410   -1.6410   -6.5678 H         1 <0>         0.1274
     41 H14        -3.4355   -4.0075   -4.6558 H         1 <0>         0.1476
     42 H15        -5.1469   -4.0024   -6.4188 H         1 <0>         0.1487
     43 H16        -3.6309   -0.2824   -7.8938 H         1 <0>         0.1387
     44 H17        -1.9213   -0.2727   -6.1291 H         1 <0>         0.1475
     45 H18        -7.4166   -3.5586  -10.4515 H         1 <0>         0.2035
     46 H19        -5.2401    0.4718   -7.6938 H         1 <0>         0.4104
     47 H20        -6.3881    0.9792   -8.8107 H         1 <0>         0.4243
@<TRIPOS>BOND
     1    1    2 1
     2    1   29 1
     3    1   30 1
     4    1   31 1
     5    2    3 1
     6    2   32 1
     7    2   33 1
     8    3    4 1
     9    3    5 am
    10    4   34 1
    11    4   35 1
    12    4   36 1
    13    5    6 2
    14    5    7 1
    15    7    8 1
    16    7   12 1
    17    7    9 1
    18    9   10 1
    19    9   37 1
    20    9   38 1
    21   10   11 1
    22   11   12 1
    23   11   39 1
    24   11   40 1
    25   12   13 am
    26   13   14 2
    27   13   15 1
    28   15   20 ar
    29   15   16 ar
    30   16   17 ar
    31   16   41 1
    32   17   18 ar
    33   17   42 1
    34   18   19 ar
    35   18   21 1
    36   19   20 ar
    37   19   43 1
    38   20   44 1
    39   21   25 1
    40   21   22 1
    41   22   23 2
    42   22   28 1
    43   23   24 1
    44   23   26 1
    45   24   25 2
    46   24   45 1
    47   26   27 3
    48   28   46 1
    49   28   47 1
@<TRIPOS>MOLECULE
ZINC67543301
   47    49     0     0     0
SMALL
USER_CHARGES

@<TRIPOS>ATOM
      1 C1          2.3266   -4.8409   -0.8620 C.3       1 <0>        -0.0760
      2 C2          1.3818   -3.7193   -0.5152 C.2       1 <0>         0.1101
      3 C3          0.7343   -2.8161   -1.4600 C.ar      1 <0>        -0.2031
      4 C4          0.7557   -2.6834   -2.8536 C.ar      1 <0>         0.0065
      5 C5         -0.0090   -1.6783   -3.4232 C.ar      1 <0>         0.0654
      6 C6         -0.7640   -0.8441   -2.6001 C.ar      1 <0>         0.1568
      7 N1         -0.7674   -0.9891   -1.2937 N.ar      1 <0>        -0.4835
      8 C7         -0.0540   -1.9345   -0.6945 C.ar      1 <0>         0.3016
      9 N2          0.1184   -2.2954    0.6159 N.pl3     1 <0>        -0.3951
     10 N3          0.9919   -3.3853    0.6818 N.2       1 <0>        -0.2369
     11 C8         -0.5159   -1.6456    1.7655 C.3       1 <0>         0.1126
     12 N4         -0.0231   -1.5015   -4.8140 N.am      1 <0>        -0.6743
     13 C9          0.1021   -2.5668   -5.6301 C.2       1 <0>         0.7101
     14 O1          0.1326   -3.6894   -5.1639 O.2       1 <0>        -0.5724
     15 N5          0.1933   -2.3877   -6.9628 N.am      1 <0>        -0.7262
     16 C10         0.3294   -3.5457   -7.8498 C.3       1 <0>         0.1447
     17 H1          0.9291   -4.3116   -7.3580 H         1 <0>         0.1161
     18 C11        -1.0567   -4.1098   -8.1682 C.3       1 <0>        -0.1633
     19 C12         1.0053   -3.1224   -9.1284 C.2       1 <0>         0.5160
     20 O2          0.9485   -1.9663   -9.4904 O.2       1 <0>        -0.5271
     21 N6          1.6731   -4.0286   -9.8696 N.am      1 <0>        -0.6118
     22 C13         1.6357   -5.4418   -9.4902 C.3       1 <0>         0.0969
     23 C14         0.8988   -6.2414  -10.5706 C.3       1 <0>        -0.1055
     24 S1          1.7370   -5.9779  -12.1624 S.3       1 <0>        -0.2486
     25 C15         1.7838   -4.1664  -12.3102 C.3       1 <0>        -0.1012
     26 C16         2.4219   -3.5884  -11.0477 C.3       1 <0>         0.1087
     27 H2          1.7590   -5.7571   -1.0241 H         1 <0>         0.0865
     28 H3          2.8741   -4.5872   -1.7698 H         1 <0>         0.0830
     29 H4          3.0303   -4.9895   -0.0429 H         1 <0>         0.0821
     30 H5          1.3508   -3.3444   -3.4662 H         1 <0>         0.1531
     31 H6         -1.3592   -0.0609   -3.0458 H         1 <0>         0.1687
     32 H7         -1.4686   -2.1310    1.9772 H         1 <0>         0.0708
     33 H8          0.1357   -1.7292    2.6353 H         1 <0>         0.0883
     34 H9         -0.6867   -0.5931    1.5394 H         1 <0>         0.0901
     35 H10        -0.1229   -0.6124   -5.1889 H         1 <0>         0.4117
     36 H11         0.1690   -1.4922   -7.3346 H         1 <0>         0.4091
     37 H12        -1.6259   -3.3752   -8.7378 H         1 <0>         0.0671
     38 H13        -0.9516   -5.0224   -8.7550 H         1 <0>         0.0730
     39 H14        -1.5802   -4.3338   -7.2388 H         1 <0>         0.0813
     40 H15         2.6537   -5.8182   -9.3903 H         1 <0>         0.0938
     41 H16         1.1137   -5.5490   -8.5393 H         1 <0>         0.1033
     42 H17         0.9182   -7.3016  -10.3181 H         1 <0>         0.1231
     43 H18        -0.1335   -5.8982  -10.6396 H         1 <0>         0.0895
     44 H19         2.3750   -3.8857  -13.1818 H         1 <0>         0.1206
     45 H20         0.7692   -3.7816  -12.4140 H         1 <0>         0.0881
     46 H21         2.4071   -2.4998  -11.1018 H         1 <0>         0.1075
     47 H22         3.4528   -3.9346  -10.9733 H         1 <0>         0.0887
@<TRIPOS>BOND
     1    1    2 1
     2    1   27 1
     3    1   28 1
     4    1   29 1
     5    2   10 2
     6    2    3 1
     7    3    8 ar
     8    3    4 ar
     9    4    5 ar
    10    4   30 1
    11    5    6 ar
    12    5   12 1
    13    6    7 ar
    14    6   31 1
    15    7    8 ar
    16    8    9 1
    17    9   10 1
    18    9   11 1
    19   11   32 1
    20   11   33 1
    21   11   34 1
    22   12   13 am
    23   12   35 1
    24   13   14 2
    25   13   15 am
    26   15   16 1
    27   15   36 1
    28   16   17 1
    29   16   18 1
    30   16   19 1
    31   18   37 1
    32   18   38 1
    33   18   39 1
    34   19   20 2
    35   19   21 am
    36   21   26 1
    37   21   22 1
    38   22   23 1
    39   22   40 1
    40   22   41 1
    41   23   24 1
    42   23   42 1
    43   23   43 1
    44   24   25 1
    45   25   26 1
    46   25   44 1
    47   25   45 1
    48   26   46 1
    49   26   47 1
@<TRIPOS>MOLECULE
ZINC15627060
   43    44     0     0     0
SMALL
USER_CHARGES
3-[[2-[(1S)-1-methyl-2-[(5-methylisoxazol-3-yl)amino]-2-oxo-ethyl]sulfanylacetyl]amino]benzamide
@<TRIPOS>ATOM
      1 C1        -11.1152    4.6586   -0.2628 C.3       1 <0>        -0.0762
      2 C2        -10.3996    3.3342   -0.3323 C.2       1 <0>        -0.0171
      3 C3         -9.0843    3.1134   -0.1076 C.2       1 <0>        -0.2289
      4 C4         -8.9338    1.7145   -0.3011 C.2       1 <0>         0.2449
      5 N1        -10.1188    1.2597   -0.6135 N.2       1 <0>        -0.3874
      6 O1        -10.9425    2.1447   -0.6296 O.3       1 <0>         0.0992
      7 N2         -7.7563    0.9752   -0.1869 N.am      1 <0>        -0.6269
      8 C5         -6.6027    1.5912    0.1391 C.2       1 <0>         0.5472
      9 O2         -6.5883    2.7883    0.3330 O.2       1 <0>        -0.4853
     10 C6         -5.3308    0.7925    0.2625 C.3       1 <0>        -0.1124
     11 H1         -5.2922    0.0458   -0.5306 H         1 <0>         0.1165
     12 C7         -5.2975    0.0936    1.6232 C.3       1 <0>        -0.1468
     13 S1         -3.9033    1.9025    0.1179 S.3       1 <0>        -0.0878
     14 C8         -2.4748    0.7845    0.1328 C.3       1 <0>        -0.1504
     15 C9         -1.2059    1.5893    0.0172 C.2       1 <0>         0.5351
     16 O3         -1.2600    2.7980   -0.0669 O.2       1 <0>        -0.4937
     17 N3         -0.0111    0.9658    0.0074 N.am      1 <0>        -0.6692
     18 C10         1.1699    1.7167   -0.0080 C.ar      1 <0>         0.1360
     19 C11         1.2223    2.9152   -0.7098 C.ar      1 <0>        -0.0913
     20 C12         2.3847    3.6628   -0.7241 C.ar      1 <0>        -0.1066
     21 C13         3.5045    3.2190   -0.0502 C.ar      1 <0>        -0.0970
     22 C14         3.4637    2.0141    0.6532 C.ar      1 <0>        -0.1221
     23 C15         2.2889    1.2623    0.6719 C.ar      1 <0>        -0.0819
     24 C16         4.6620    1.5360    1.3756 C.2       1 <0>         0.5651
     25 O4          4.6244    0.4862    1.9872 O.2       1 <0>        -0.5389
     26 N4          5.7959    2.2642    1.3560 N.am      1 <0>        -0.8491
     27 H2        -11.0908    5.1366   -1.2421 H         1 <0>         0.0912
     28 H3        -12.1506    4.4969    0.0369 H         1 <0>         0.0861
     29 H4        -10.6217    5.3004    0.4671 H         1 <0>         0.0946
     30 H5         -8.3247    3.8338    0.1579 H         1 <0>         0.1909
     31 H6         -7.7678    0.0177   -0.3420 H         1 <0>         0.4203
     32 H7         -6.1552   -0.5734    1.7101 H         1 <0>         0.0726
     33 H8         -4.3775   -0.4841    1.7125 H         1 <0>         0.0747
     34 H9         -5.3360    0.8403    2.4163 H         1 <0>         0.0812
     35 H10        -2.5450    0.0941   -0.7077 H         1 <0>         0.1175
     36 H11        -2.4641    0.2212    1.0658 H         1 <0>         0.1190
     37 H12         0.0303   -0.0033    0.0069 H         1 <0>         0.4152
     38 H13         0.3507    3.2654   -1.2427 H         1 <0>         0.1456
     39 H14         2.4183    4.5952   -1.2681 H         1 <0>         0.1363
     40 H15         4.4123    3.8038   -0.0674 H         1 <0>         0.1295
     41 H16         2.2512    0.3294    1.2147 H         1 <0>         0.1409
     42 H17         5.8259    3.1020    0.8680 H         1 <0>         0.4021
     43 H18         6.5820    1.9506    1.8299 H         1 <0>         0.4073
@<TRIPOS>BOND
     1    1    2 1
     2    1   27 1
     3    1   28 1
     4    1   29 1
     5    2    6 1
     6    2    3 2
     7    3    4 1
     8    3   30 1
     9    4    5 2
    10    4    7 1
    11    5    6 1
    12    7    8 am
    13    7   31 1
    14    8    9 2
    15    8   10 1
    16   10   11 1
    17   10   12 1
    18   10   13 1
    19   12   32 1
    20   12   33 1
    21   12   34 1
    22   13   14 1
    23   14   15 1
    24   14   35 1
    25   14   36 1
    26   15   16 2
    27   15   17 am
    28   17   18 1
    29   17   37 1
    30   18   23 ar
    31   18   19 ar
    32   19   20 ar
    33   19   38 1
    34   20   21 ar
    35   20   39 1
    36   21   22 ar
    37   21   40 1
    38   22   23 ar
    39   22   24 1
    40   23   41 1
    41   24   25 2
    42   24   26 am
    43   26   42 1
    44   26   43 1
@<TRIPOS>MOLECULE
ZINC38701661
   42    45     0     0     0
SMALL
USER_CHARGES

@<TRIPOS>ATOM
      1 C1         -0.0187    1.5258    0.0104 C.3       1 <0>        -0.1692
      2 C2          0.0021   -0.0041    0.0020 C.3       1 <0>         0.1244
      3 N1         -1.3723   -0.5112    0.0124 N.pl3     1 <0>        -0.6730
      4 C3         -1.6053   -1.8669    0.0074 C.2       1 <0>         0.4714
      5 N2         -0.7177   -2.8269   -0.0005 N.2       1 <0>        -0.6204
      6 C4         -1.1456   -4.2325    0.0573 C.3       1 <0>         0.3347
      7 H1         -0.4515   -4.8534   -0.5091 H         1 <0>         0.1339
      8 C5         -2.5613   -4.3423   -0.5502 C.3       1 <0>        -0.0276
      9 H2         -2.5176   -4.3994   -1.6378 H         1 <0>         0.1557
     10 S1         -3.1906   -2.7008    0.0180 S.3       1 <0>        -0.1957
     11 C6         -3.3867   -5.4526    0.0084 C.2       1 <0>         0.1426
     12 C7         -3.1483   -5.9663    1.2237 C.2       1 <0>        -0.1670
     13 C8         -3.9796   -7.0881    1.7845 C.3       1 <0>         0.1011
     14 H3         -4.1808   -6.8969    2.8385 H         1 <0>         0.1139
     15 C9         -5.2819   -7.1896    1.0384 C.2       1 <0>        -0.2668
     16 C10        -5.4129   -6.6103   -0.1808 C.2       1 <0>         0.4369
     17 O1         -4.3966   -5.9420   -0.7479 O.3       1 <0>        -0.2411
     18 N3         -6.6085   -6.7097   -0.8480 N.pl3     1 <0>        -0.8246
     19 C11        -6.3839   -7.8986    1.6159 C.1       1 <0>         0.2725
     20 N4         -7.2581   -8.4611    2.0739 N.1       1 <0>        -0.4332
     21 C12        -3.2256   -8.3857    1.6471 C.ar      1 <0>        -0.1303
     22 C13        -2.9078   -9.1352    2.7697 C.ar      1 <0>        -0.0557
     23 C14        -2.2132  -10.3223    2.5955 C.ar      1 <0>        -0.1692
     24 C15        -1.8631  -10.7165    1.3177 C.ar      1 <0>         0.0974
     25 N5         -2.1818   -9.9779    0.2730 N.ar      1 <0>        -0.4822
     26 C16        -2.8473   -8.8464    0.4005 C.ar      1 <0>         0.1120
     27 C17        -2.0555   -5.4157    2.0246 C.2       1 <0>         0.5758
     28 O2         -1.9911   -5.6661    3.2142 O.2       1 <0>        -0.5142
     29 N6         -1.1275   -4.6263    1.4624 N.am      1 <0>        -0.7162
     30 H4          1.0039    1.9031    0.0027 H         1 <0>         0.0817
     31 H5         -0.5459    1.8868   -0.8726 H         1 <0>         0.0647
     32 H6         -0.5289    1.8773    0.9072 H         1 <0>         0.0645
     33 H7          0.5123   -0.3556   -0.8948 H         1 <0>         0.0751
     34 H8          0.5293   -0.3651    0.8851 H         1 <0>         0.0744
     35 H9         -2.1181    0.1091    0.0229 H         1 <0>         0.4203
     36 H10        -7.3492   -7.1906   -0.4468 H         1 <0>         0.4283
     37 H11        -6.7125   -6.2990   -1.7206 H         1 <0>         0.4135
     38 H12        -3.1942   -8.8020    3.7562 H         1 <0>         0.1372
     39 H13        -1.9487  -10.9311    3.4474 H         1 <0>         0.1373
     40 H14        -1.3220  -11.6399    1.1735 H         1 <0>         0.1567
     41 H15        -3.0952   -8.2710   -0.4791 H         1 <0>         0.1448
     42 H16        -0.3931   -4.3123    2.0129 H         1 <0>         0.4159
@<TRIPOS>BOND
     1    1    2 1
     2    1   30 1
     3    1   31 1
     4    1   32 1
     5    2    3 1
     6    2   33 1
     7    2   34 1
     8    3    4 1
     9    3   35 1
    10    4   10 1
    11    4    5 2
    12    5    6 1
    13    6    7 1
    14    6   29 1
    15    6    8 1
    16    8    9 1
    17    8   10 1
    18    8   11 1
    19   11   17 1
    20   11   12 2
    21   12   13 1
    22   12   27 1
    23   13   14 1
    24   13   15 1
    25   13   21 1
    26   15   16 2
    27   15   19 1
    28   16   17 1
    29   16   18 1
    30   18   36 1
    31   18   37 1
    32   19   20 3
    33   21   26 ar
    34   21   22 ar
    35   22   23 ar
    36   22   38 1
    37   23   24 ar
    38   23   39 1
    39   24   25 ar
    40   24   40 1
    41   25   26 ar
    42   26   41 1
    43   27   28 2
    44   27   29 am
    45   29   42 1
@<TRIPOS>MOLECULE
ZINC48002736
   43    45     0     0     0
SMALL
USER_CHARGES

@<TRIPOS>ATOM
      1 C1         -0.0175    1.4401    0.0100 C.2       1 <0>        -0.1022
      2 C2          1.1863    2.0435    0.0017 C.2       1 <0>        -0.2481
      3 S1          2.3284    0.6791   -0.0165 S.3       1 <0>         0.2904
      4 C3          1.2519   -0.6078   -0.0132 C.2       1 <0>         0.0726
      5 C4          0.0021   -0.0041    0.0020 C.2       1 <0>        -0.2607
      6 C5         -1.2348   -0.7920    0.0101 C.2       1 <0>         0.5871
      7 O1         -1.1818   -2.0079    0.0035 O.2       1 <0>        -0.5571
      8 N1         -2.4302   -0.1697    0.0248 N.am      1 <0>        -0.8476
      9 N2          1.5431   -1.9608   -0.0232 N.am      1 <0>        -0.5827
     10 C6          2.8260   -2.3738   -0.0372 C.2       1 <0>         0.5005
     11 O2          3.7259   -1.5592   -0.0409 O.2       1 <0>        -0.4815
     12 C7          3.1402   -3.8333   -0.0480 C.2       1 <0>         0.5160
     13 O3          2.2404   -4.6478   -0.0442 O.2       1 <0>        -0.5000
     14 N3          4.4230   -4.2464   -0.0620 N.am      1 <0>        -0.6941
     15 C8          4.7313   -5.6785   -0.0726 C.3       1 <0>         0.1225
     16 C9          6.2488   -5.8734   -0.0875 C.3       1 <0>        -0.0835
     17 C10         6.5659   -7.3466   -0.0985 C.ar      1 <0>        -0.0808
     18 C11         6.8185   -8.0073    1.0881 C.ar      1 <0>        -0.1098
     19 C12         7.1106   -9.3605    1.0784 C.ar      1 <0>         0.0756
     20 C13         7.1509  -10.0521   -0.1202 C.ar      1 <0>        -0.1079
     21 C14         6.8991   -9.3935   -1.3090 C.ar      1 <0>        -0.1723
     22 C15         6.5986   -8.0403   -1.3001 C.ar      1 <0>         0.1323
     23 O4          6.3350   -7.3833   -2.4617 O.3       1 <0>        -0.3226
     24 C16         6.7275   -8.0321   -3.6746 C.3       1 <0>         0.2197
     25 O5          6.2873   -9.3946   -3.6278 O.3       1 <0>        -0.3802
     26 C17         6.9498  -10.1559   -2.6089 C.3       1 <0>         0.0996
     27 F1          7.3569  -10.0063    2.2392 F         1 <0>        -0.1350
     28 H1         -0.9402    2.0011    0.0261 H         1 <0>         0.1450
     29 H2          1.4058    3.1009    0.0050 H         1 <0>         0.1919
     30 H3         -2.4725    0.7994    0.0300 H         1 <0>         0.4016
     31 H4         -3.2483   -0.6909    0.0301 H         1 <0>         0.4057
     32 H5          0.8240   -2.6117   -0.0202 H         1 <0>         0.4453
     33 H6          5.1421   -3.5954   -0.0650 H         1 <0>         0.4153
     34 H7          4.3136   -6.1467    0.8187 H         1 <0>         0.0789
     35 H8          4.2974   -6.1370   -0.9612 H         1 <0>         0.0830
     36 H9          6.6665   -5.4052   -0.9788 H         1 <0>         0.0920
     37 H10         6.6827   -5.4149    0.8010 H         1 <0>         0.0877
     38 H11         6.7883   -7.4681    2.0234 H         1 <0>         0.1470
     39 H12         7.3798  -11.1075   -0.1264 H         1 <0>         0.1439
     40 H13         6.2675   -7.5280   -4.5246 H         1 <0>         0.1460
     41 H14         7.8128   -8.0014   -3.7713 H         1 <0>         0.0666
     42 H15         7.9889  -10.3310   -2.8877 H         1 <0>         0.0808
     43 H16         6.4383  -11.1111   -2.4907 H         1 <0>         0.1190
@<TRIPOS>BOND
     1    1    5 1
     2    1    2 2
     3    1   28 1
     4    2    3 1
     5    2   29 1
     6    3    4 1
     7    4    5 2
     8    4    9 1
     9    5    6 1
    10    6    7 2
    11    6    8 am
    12    8   30 1
    13    8   31 1
    14    9   10 am
    15    9   32 1
    16   10   11 2
    17   10   12 1
    18   12   13 2
    19   12   14 am
    20   14   15 1
    21   14   33 1
    22   15   16 1
    23   15   34 1
    24   15   35 1
    25   16   17 1
    26   16   36 1
    27   16   37 1
    28   17   22 ar
    29   17   18 ar
    30   18   19 ar
    31   18   38 1
    32   19   20 ar
    33   19   27 1
    34   20   21 ar
    35   20   39 1
    36   21   26 1
    37   21   22 ar
    38   22   23 1
    39   23   24 1
    40   24   25 1
    41   24   40 1
    42   24   41 1
    43   25   26 1
    44   26   42 1
    45   26   43 1
@<TRIPOS>MOLECULE
ZINC63533206
   34    35     0     0     0
SMALL
USER_CHARGES

@<TRIPOS>ATOM
      1 C1         -0.0164    1.3618    0.0095 C.2       1 <0>        -0.1108
      2 C2          1.3213    1.7838   -0.0010 C.2       1 <0>        -0.1644
      3 C3          2.0901    0.6705   -0.0143 C.2       1 <0>        -0.0007
      4 O1          1.2909   -0.4045   -0.0124 O.3       1 <0>        -0.1462
      5 C4          0.0021   -0.0041    0.0020 C.2       1 <0>        -0.0580
      6 C5         -1.1721   -0.8811    0.0090 C.2       1 <0>         0.6097
      7 O2         -2.2903   -0.4009    0.0226 O.2       1 <0>        -0.5099
      8 N1         -1.0135   -2.2195    0.0002 N.am      1 <0>        -0.7085
      9 C6         -2.1872   -3.0963    0.0071 C.3       1 <0>         0.1007
     10 C7         -1.7394   -4.5352   -0.0050 C.2       1 <0>         0.5155
     11 O3         -0.5564   -4.8020   -0.0182 O.2       1 <0>        -0.5324
     12 N2         -2.6536   -5.5254   -0.0013 N.am      1 <0>        -0.7128
     13 C8         -2.2183   -6.9242   -0.0131 C.3       1 <0>         0.1047
     14 C9         -3.4256   -7.8261   -0.0060 C.2       1 <0>         0.5116
     15 O4         -4.5402   -7.3475    0.0076 O.2       1 <0>        -0.5226
     16 N3         -3.2671   -9.1645   -0.0147 N.am      1 <0>        -0.6360
     17 C10        -4.3948  -10.0069   -0.0081 C.2       1 <0>        -0.0075
     18 C11        -4.3787  -11.3643   -0.0101 C.2       1 <0>         0.0302
     19 N4         -5.6685  -11.7895   -0.0017 N.pl3     1 <0>        -0.4720
     20 H1         -5.9653  -12.7130   -0.0009 H         1 <0>         0.4464
     21 N5         -6.4945  -10.6582    0.0056 N.2       1 <0>        -0.2799
     22 C12        -5.7348   -9.5931    0.0079 C.2       1 <0>         0.0559
     23 Br1         3.9807    0.6375   -0.0331 Br        1 <0>         0.0675
     24 H2         -0.8917    1.9943    0.0253 H         1 <0>         0.1731
     25 H3          1.6717    2.8054    0.0008 H         1 <0>         0.1712
     26 H4         -0.1223   -2.6023   -0.0107 H         1 <0>         0.4187
     27 H5         -2.7769   -2.9068    0.9040 H         1 <0>         0.1100
     28 H6         -2.7945   -2.8973   -0.8758 H         1 <0>         0.1100
     29 H7         -3.5998   -5.3120    0.0092 H         1 <0>         0.4180
     30 H8         -1.6286   -7.1137   -0.9100 H         1 <0>         0.1069
     31 H9         -1.6109   -7.1232    0.8698 H         1 <0>         0.1069
     32 H10        -2.3758   -9.5472   -0.0256 H         1 <0>         0.4151
     33 H11        -3.4999  -11.9921   -0.0176 H         1 <0>         0.1824
     34 H12        -6.0805   -8.5700    0.0173 H         1 <0>         0.2069
@<TRIPOS>BOND
     1    1    5 2
     2    1    2 1
     3    1   24 1
     4    2    3 2
     5    2   25 1
     6    3    4 1
     7    3   23 1
     8    4    5 1
     9    5    6 1
    10    6    7 2
    11    6    8 am
    12    8    9 1
    13    8   26 1
    14    9   10 1
    15    9   27 1
    16    9   28 1
    17   10   11 2
    18   10   12 am
    19   12   13 1
    20   12   29 1
    21   13   14 1
    22   13   30 1
    23   13   31 1
    24   14   15 2
    25   14   16 am
    26   16   17 1
    27   16   32 1
    28   17   22 1
    29   17   18 2
    30   18   19 1
    31   18   33 1
    32   19   20 1
    33   19   21 1
    34   21   22 2
    35   22   34 1
@<TRIPOS>MOLECULE
ZINC67012545
   49    50     0     0     0
SMALL
USER_CHARGES

@<TRIPOS>ATOM
      1 C1          1.1388   -0.2369   -2.2710 C.3       1 <0>        -0.1447
      2 C2          0.7517   -1.7017   -2.4843 C.3       1 <0>        -0.1146
      3 C3          1.7510   -2.6042   -1.7578 C.3       1 <0>        -0.1353
      4 C4         -0.6316   -1.9406   -1.9362 C.2       1 <0>         0.5164
      5 O1         -0.8015   -2.7527   -1.0517 O.2       1 <0>        -0.5285
      6 N1         -1.6800   -1.2517   -2.4291 N.am      1 <0>        -0.7276
      7 C5         -3.0247   -1.4839   -1.8963 C.3       1 <0>         0.1314
      8 H1         -2.9618   -1.6945   -0.8287 H         1 <0>         0.0932
      9 C6         -3.8854   -0.2387   -2.1214 C.3       1 <0>        -0.1279
     10 C7         -5.2807   -0.4682   -1.5360 C.3       1 <0>        -0.1318
     11 C8         -5.9427   -1.6495   -2.2523 C.3       1 <0>         0.1052
     12 N2         -5.0523   -2.8149   -2.1646 N.am      1 <0>        -0.6197
     13 C9         -3.6608   -2.6772   -2.6162 C.3       1 <0>         0.1186
     14 C10        -5.5030   -3.9884   -1.6786 C.2       1 <0>         0.7077
     15 O2         -4.7820   -4.9674   -1.6878 O.2       1 <0>        -0.5564
     16 N3         -6.7530   -4.0767   -1.1825 N.am      1 <0>        -0.6886
     17 C11        -7.1711   -5.2497   -0.5439 C.ar      1 <0>         0.2296
     18 C12        -6.2654   -6.0013    0.1932 C.ar      1 <0>        -0.1438
     19 C13        -6.6813   -7.1582    0.8227 C.ar      1 <0>         0.0053
     20 C14        -7.9978   -7.5683    0.7196 C.ar      1 <0>        -0.6964
     21 C15        -8.9020   -6.8223   -0.0140 C.ar      1 <0>         0.0052
     22 C16        -8.4938   -5.6614   -0.6411 C.ar      1 <0>        -0.1716
     23 S1         -8.5243   -9.0448    1.5242 S.o2      1 <0>         2.7035
     24 O3         -9.6739   -9.5009    0.8243 O.2       1 <0>        -0.9647
     25 O4         -7.3660   -9.8503    1.6933 O.2       1 <0>        -0.9630
     26 N4         -9.0318   -8.6208    3.0424 N.pl3     1 <0>        -1.2505
     27 H2          2.1394   -0.0641   -2.6674 H         1 <0>         0.0701
     28 H3          0.4269    0.4061   -2.7886 H         1 <0>         0.0587
     29 H4          1.1259   -0.0091   -1.2051 H         1 <0>         0.0613
     30 H5          0.7646   -1.9294   -3.5501 H         1 <0>         0.0986
     31 H6          1.7381   -2.3765   -0.6919 H         1 <0>         0.0624
     32 H7          1.4752   -3.6478   -1.9097 H         1 <0>         0.0630
     33 H8          2.7515   -2.4314   -2.1542 H         1 <0>         0.0632
     34 H9         -1.5440   -0.6021   -3.1365 H         1 <0>         0.4024
     35 H10        -3.4218    0.6169   -1.6303 H         1 <0>         0.0775
     36 H11        -3.9680   -0.0427   -3.1905 H         1 <0>         0.0738
     37 H12        -5.1969   -0.6886   -0.4718 H         1 <0>         0.0731
     38 H13        -5.8858    0.4276   -1.6759 H         1 <0>         0.0873
     39 H14        -6.8945   -1.8800   -1.7739 H         1 <0>         0.0786
     40 H15        -6.1096   -1.3951   -3.2990 H         1 <0>         0.0792
     41 H16        -3.6416   -2.5072   -3.6926 H         1 <0>         0.0712
     42 H17        -3.1072   -3.5853   -2.3776 H         1 <0>         0.1021
     43 H18        -7.3629   -3.3273   -1.2680 H         1 <0>         0.4098
     44 H19        -5.2369   -5.6818    0.2738 H         1 <0>         0.1463
     45 H20        -5.9773   -7.7434    1.3957 H         1 <0>         0.1473
     46 H21        -9.9295   -7.1453   -0.0929 H         1 <0>         0.1480
     47 H22        -9.2015   -5.0766   -1.2099 H         1 <0>         0.1374
     48 H23        -8.9974   -7.6932    3.3239 H         1 <0>         0.4164
     49 H24        -9.3636   -9.3001    3.6502 H         1 <0>         0.4209
@<TRIPOS>BOND
     1    1    2 1
     2    1   27 1
     3    1   28 1
     4    1   29 1
     5    2    3 1
     6    2    4 1
     7    2   30 1
     8    3   31 1
     9    3   32 1
    10    3   33 1
    11    4    5 2
    12    4    6 am
    13    6    7 1
    14    6   34 1
    15    7    8 1
    16    7   13 1
    17    7    9 1
    18    9   10 1
    19    9   35 1
    20    9   36 1
    21   10   11 1
    22   10   37 1
    23   10   38 1
    24   11   12 1
    25   11   39 1
    26   11   40 1
    27   12   13 1
    28   12   14 am
    29   13   41 1
    30   13   42 1
    31   14   15 2
    32   14   16 am
    33   16   17 1
    34   16   43 1
    35   17   22 ar
    36   17   18 ar
    37   18   19 ar
    38   18   44 1
    39   19   20 ar
    40   19   45 1
    41   20   21 ar
    42   20   23 1
    43   21   22 ar
    44   21   46 1
    45   22   47 1
    46   23   24 2
    47   23   25 2
    48   23   26 1
    49   26   48 1
    50   26   49 1
@<TRIPOS>MOLECULE
ZINC09529981
   55    59     0     0     0
SMALL
USER_CHARGES
N-[1-(2,5-dioxabicyclo[4.4.0]deca-7,9,11-trien-8-yl)ethyl]-4-[(3,3-dioxo-3$l^{6},6-dithia-8-azabicyclo[3.3.0]oct-7-en-7-yl)amino]benzamide
@<TRIPOS>ATOM
      1 C1         -3.3126   -0.4975    0.6939 C.3       1 <0>        -0.1595
      2 C2         -2.9403   -0.3613   -0.7839 C.3       1 <0>         0.1891
      3 H1         -2.7164   -1.3458   -1.1944 H         1 <0>         0.1008
      4 C3         -1.7294    0.5259   -0.9171 C.ar      1 <0>        -0.0893
      5 C4         -1.8711    1.9000   -0.8617 C.ar      1 <0>        -0.1106
      6 C5         -0.7637    2.7169   -0.9877 C.ar      1 <0>        -0.1073
      7 C6          0.4943    2.1599   -1.1643 C.ar      1 <0>         0.0526
      8 C7          0.6370    0.7785   -1.2183 C.ar      1 <0>         0.0559
      9 C8         -0.4792   -0.0356   -1.0950 C.ar      1 <0>        -0.0994
     10 O1          1.8620    0.2109   -1.3902 O.3       1 <0>        -0.3057
     11 C9          2.9017    1.0622   -1.8845 C.3       1 <0>         0.0199
     12 C10         2.8612    2.3776   -1.0948 C.3       1 <0>         0.0199
     13 O2          1.5755    2.9772   -1.2883 O.3       1 <0>        -0.3065
     14 N1         -4.0621    0.2301   -1.5175 N.am      1 <0>        -0.7221
     15 C11        -5.0577   -0.5552   -1.9739 C.2       1 <0>         0.5640
     16 O3         -5.0249   -1.7546   -1.7769 O.2       1 <0>        -0.5343
     17 C12        -6.1875    0.0404   -2.7129 C.ar      1 <0>        -0.1547
     18 C13        -6.2296    1.4197   -2.9353 C.ar      1 <0>        -0.0591
     19 C14        -7.2828    1.9716   -3.6287 C.ar      1 <0>        -0.1340
     20 C15        -8.3098    1.1592   -4.0998 C.ar      1 <0>         0.1838
     21 C16        -8.2736   -0.2138   -3.8754 C.ar      1 <0>        -0.1546
     22 C17        -7.2209   -0.7727   -3.1869 C.ar      1 <0>        -0.0311
     23 N2         -9.3768    1.7216   -4.7970 N.pl3     1 <0>        -0.6106
     24 C18        -9.7608    3.0196   -4.5390 C.2       1 <0>         0.4162
     25 N3         -9.2896    3.8304   -3.5946 N.2       1 <0>        -0.5540
     26 C19        -9.9308    5.0937   -3.4502 C.3       1 <0>         0.0782
     27 H2        -10.8704    4.8505   -2.9542 H         1 <0>         0.0863
     28 C20        -9.3897    6.2748   -2.6684 C.3       1 <0>        -0.5378
     29 S1        -10.5763    7.5926   -3.2063 S.o2      1 <0>         2.3670
     30 O4         -9.8494    8.6505   -3.8160 O.2       1 <0>        -0.9146
     31 O5        -11.4671    7.8792   -2.1369 O.2       1 <0>        -0.9156
     32 C21       -11.4886    6.6494   -4.5185 C.3       1 <0>        -0.5424
     33 C22       -10.4063    5.6165   -4.8545 C.3       1 <0>        -0.1063
     34 H3         -9.6145    6.0172   -5.4874 H         1 <0>         0.1450
     35 S2        -11.0132    3.9821   -5.4010 S.3       1 <0>        -0.1430
     36 H4         -2.4780   -0.9375    1.2398 H         1 <0>         0.0701
     37 H5         -3.5365    0.4871    1.1044 H         1 <0>         0.0606
     38 H6         -4.1884   -1.1391    0.7903 H         1 <0>         0.0676
     39 H7         -2.8494    2.3358   -0.7221 H         1 <0>         0.1301
     40 H8         -0.8771    3.7900   -0.9436 H         1 <0>         0.1379
     41 H9         -0.3712   -1.1093   -1.1378 H         1 <0>         0.1385
     42 H10         3.8692    0.5797   -1.7456 H         1 <0>         0.1247
     43 H11         2.7399    1.2633   -2.9435 H         1 <0>         0.0792
     44 H12         3.0167    2.1751   -0.0352 H         1 <0>         0.0795
     45 H13         3.6385    3.0492   -1.4592 H         1 <0>         0.1244
     46 H14        -4.0882    1.1870   -1.6747 H         1 <0>         0.3992
     47 H15        -5.4350    2.0513   -2.5664 H         1 <0>         0.1285
     48 H16        -7.3138    3.0368   -3.8044 H         1 <0>         0.1484
     49 H17        -9.0722   -0.8416   -4.2423 H         1 <0>         0.1359
     50 H18        -7.1935   -1.8382   -3.0129 H         1 <0>         0.1432
     51 H19        -9.8493    1.1995   -5.4641 H         1 <0>         0.4324
     52 H20        -8.3697    6.5142   -2.9689 H         1 <0>         0.1490
     53 H21        -9.4519    6.1009   -1.5941 H         1 <0>         0.1543
     54 H22       -11.7206    7.2800   -5.3768 H         1 <0>         0.1559
     55 H23       -12.3857    6.1746   -4.1211 H         1 <0>         0.1547
@<TRIPOS>BOND
     1    1    2 1
     2    1   36 1
     3    1   37 1
     4    1   38 1
     5    2    3 1
     6    2    4 1
     7    2   14 1
     8    4    9 ar
     9    4    5 ar
    10    5    6 ar
    11    5   39 1
    12    6    7 ar
    13    6   40 1
    14    7   13 1
    15    7    8 ar
    16    8    9 ar
    17    8   10 1
    18    9   41 1
    19   10   11 1
    20   11   12 1
    21   11   42 1
    22   11   43 1
    23   12   13 1
    24   12   44 1
    25   12   45 1
    26   14   15 am
    27   14   46 1
    28   15   16 2
    29   15   17 1
    30   17   22 ar
    31   17   18 ar
    32   18   19 ar
    33   18   47 1
    34   19   20 ar
    35   19   48 1
    36   20   21 ar
    37   20   23 1
    38   21   22 ar
    39   21   49 1
    40   22   50 1
    41   23   24 1
    42   23   51 1
    43   24   35 1
    44   24   25 2
    45   25   26 1
    46   26   27 1
    47   26   33 1
    48   26   28 1
    49   28   29 1
    50   28   52 1
    51   28   53 1
    52   29   30 2
    53   29   31 2
    54   29   32 1
    55   32   33 1
    56   32   54 1
    57   32   55 1
    58   33   34 1
    59   33   35 1
@<TRIPOS>MOLECULE
ZINC20029339
   60    64     0     0     0
SMALL
USER_CHARGES
2-[(dimethyl-pyrrolidin-1-yl-BLAHyl)-(2-hydroxyethyl)amino]ethanol
@<TRIPOS>ATOM
      1 C1          1.9518    4.4573    8.3902 C.3       1 <0>        -0.1818
      2 C2          1.7823    2.9460    8.5582 C.3       1 <0>         0.1076
      3 C3          1.3057    2.3312    7.2402 C.3       1 <0>        -0.1049
      4 C4         -0.1234    2.7276    6.9832 C.ar      1 <0>         0.0625
      5 C5         -0.9227    3.2193    7.9673 C.ar      1 <0>        -0.1918
      6 C6         -2.2488    3.5617    7.6820 C.ar      1 <0>         0.3616
      7 N1         -2.7319    3.4127    6.4585 N.ar      1 <0>        -0.4877
      8 C7         -1.9833    2.9439    5.4821 C.ar      1 <0>         0.1435
      9 C8         -0.6415    2.5732    5.6740 C.ar      1 <0>        -0.1649
     10 C9          0.0639    2.0653    4.4829 C.ar      1 <0>         0.2171
     11 C10        -0.6873    2.0148    3.3019 C.ar      1 <0>        -0.2269
     12 S1         -2.2863    2.6233    3.7617 S.3       1 <0>         0.1446
     13 C11        -0.1264    1.5551    2.1191 C.ar      1 <0>         0.4471
     14 N2          1.1453    1.1562    2.1360 N.ar      1 <0>        -0.5389
     15 C12         1.8411    1.2140    3.2566 C.ar      1 <0>         0.3265
     16 N3          1.3447    1.6423    4.3902 N.ar      1 <0>        -0.5196
     17 N4         -0.8714    1.5066    0.9508 N.pl3     1 <0>        -0.4600
     18 C13        -0.0683    0.9875   -0.1644 C.3       1 <0>         0.0522
     19 C14        -0.7389    1.3543   -1.4898 C.3       1 <0>         0.0875
     20 O1         -0.7411    2.7748   -1.6455 O.3       1 <0>        -0.5889
     21 C15        -2.0912    0.7094    1.1369 C.3       1 <0>         0.0486
     22 C16        -1.7108   -0.7337    1.4740 C.3       1 <0>         0.0457
     23 O2         -1.0546   -0.7693    2.7429 O.3       1 <0>        -0.5925
     24 N5         -3.0637    4.0608    8.6890 N.pl3     1 <0>        -0.4585
     25 C17        -2.5382    5.3487    9.2098 C.3       1 <0>         0.0278
     26 C18        -3.7762    5.9890    9.8867 C.3       1 <0>        -0.1215
     27 C19        -4.9321    5.5909    8.9404 C.3       1 <0>        -0.1284
     28 C20        -4.4192    4.3563    8.1762 C.3       1 <0>         0.0330
     29 C21        -0.4129    3.4119    9.3726 C.3       1 <0>         0.1100
     30 O3          0.7975    2.6799    9.5635 O.3       1 <0>        -0.3634
     31 C22         3.1172    2.3193    8.9660 C.3       1 <0>        -0.1384
     32 H1          2.7087    4.6577    7.6176 H         1 <0>         0.0716
     33 H2          2.2762    4.8982    9.3444 H         1 <0>         0.0697
     34 H3          0.9924    4.9025    8.0879 H         1 <0>         0.0581
     35 H4          1.9384    2.6936    6.4166 H         1 <0>         0.1098
     36 H5          1.3749    1.2350    7.3007 H         1 <0>         0.0989
     37 H6          2.8703    0.8874    3.2384 H         1 <0>         0.1969
     38 H7          0.9384    1.4294   -0.1281 H         1 <0>         0.1049
     39 H8          0.0085   -0.1068   -0.0828 H         1 <0>         0.0735
     40 H9         -0.1837    0.8952   -2.3210 H         1 <0>         0.0523
     41 H10        -1.7746    0.9836   -1.4917 H         1 <0>         0.0412
     42 H11        -1.1843    3.2289   -2.5440 H         1 <0>         0.4062
     43 H12        -2.6847    1.1340    1.9600 H         1 <0>         0.0955
     44 H13        -2.6846    0.7254    0.2108 H         1 <0>         0.1120
     45 H14        -2.6193   -1.3527    1.5135 H         1 <0>         0.0590
     46 H15        -1.0340   -1.1248    0.7001 H         1 <0>         0.0525
     47 H16        -0.7055   -1.7276    3.1549 H         1 <0>         0.4097
     48 H17        -1.7239    5.1511    9.9225 H         1 <0>         0.0987
     49 H18        -2.1555    5.9533    8.3743 H         1 <0>         0.0571
     50 H19        -3.8958    5.5750   10.8988 H         1 <0>         0.0821
     51 H20        -3.6370    7.0783    9.9502 H         1 <0>         0.0808
     52 H21        -5.8278    5.3561    9.5342 H         1 <0>         0.0789
     53 H22        -5.1524    6.4260    8.2591 H         1 <0>         0.0733
     54 H23        -4.3661    4.5622    7.0970 H         1 <0>         0.0863
     55 H24        -5.0747    3.4907    8.3525 H         1 <0>         0.0870
     56 H25        -0.2188    4.4802    9.5490 H         1 <0>         0.0706
     57 H26        -1.1669    3.0531   10.0886 H         1 <0>         0.1168
     58 H27         2.9910    1.2331    9.0857 H         1 <0>         0.0668
     59 H28         3.4519    2.7567    9.9182 H         1 <0>         0.0673
     60 H29         3.8684    2.5176    8.1873 H         1 <0>         0.0751
@<TRIPOS>BOND
     1    1    2 1
     2    1   32 1
     3    1   33 1
     4    1   34 1
     5    2   30 1
     6    2    3 1
     7    2   31 1
     8    3    4 1
     9    3   35 1
    10    3   36 1
    11    4    9 ar
    12    4    5 ar
    13    5    6 ar
    14    5   29 1
    15    6    7 ar
    16    6   24 1
    17    7    8 ar
    18    8   12 1
    19    8    9 ar
    20    9   10 1
    21   10   16 ar
    22   10   11 ar
    23   11   12 1
    24   11   13 ar
    25   13   14 ar
    26   13   17 1
    27   14   15 ar
    28   15   16 ar
    29   15   37 1
    30   17   18 1
    31   17   21 1
    32   18   19 1
    33   18   38 1
    34   18   39 1
    35   19   20 1
    36   19   40 1
    37   19   41 1
    38   20   42 1
    39   21   22 1
    40   21   43 1
    41   21   44 1
    42   22   23 1
    43   22   45 1
    44   22   46 1
    45   23   47 1
    46   24   28 1
    47   24   25 1
    48   25   26 1
    49   25   48 1
    50   25   49 1
    51   26   27 1
    52   26   50 1
    53   26   51 1
    54   27   28 1
    55   27   52 1
    56   27   53 1
    57   28   54 1
    58   28   55 1
    59   29   30 1
    60   29   56 1
    61   29   57 1
    62   31   58 1
    63   31   59 1
    64   31   60 1
@<TRIPOS>MOLECULE
ZINC09263976
   44    46     0     0     0
SMALL
USER_CHARGES

@<TRIPOS>ATOM
      1 C1         -0.0336    1.4342    0.0119 C.3       1 <0>         0.0682
      2 N1         -0.0036   -0.0304   -0.0013 N.pl3     1 <0>        -0.4530
      3 C2          0.0101   -0.8462   -1.0988 C.2       1 <0>         0.1934
      4 N2          0.0372   -2.0756   -0.6680 N.2       1 <0>        -0.2644
      5 N3          0.0415   -2.0928    0.6172 N.2       1 <0>        -0.2907
      6 C3          0.0223   -0.8642    1.0796 C.2       1 <0>         0.1539
      7 S1          0.0261   -0.3825    2.7745 S.3       1 <0>         0.0627
      8 C4          0.0659   -1.9552    3.6776 C.3       1 <0>        -0.1103
      9 C5          0.0722   -1.6833    5.1598 C.2       1 <0>         0.5121
     10 O1          0.0518   -0.5384    5.5678 O.2       1 <0>        -0.5129
     11 N4          0.1002   -2.6966    6.0221 N.2       1 <0>        -0.6208
     12 C6          0.1058   -2.4570    7.3283 C.2       1 <0>         0.4368
     13 N5          0.1384   -3.3873    8.3093 N.pl3     1 <0>        -0.6970
     14 C7          0.1403   -2.9761    9.6980 C.3       1 <0>         0.0992
     15 C8          0.1026   -1.4385    9.8239 C.3       1 <0>        -0.1671
     16 S2          0.0810   -0.9474    8.0559 S.3       1 <0>         0.0491
     17 C9         -0.0040   -0.4050   -2.5397 C.3       1 <0>        -0.0498
     18 C10         1.4117   -0.2278   -3.0247 C.2       1 <0>         0.5213
     19 O2          2.3408   -0.4389   -2.2741 O.2       1 <0>        -0.4976
     20 N6          1.6455    0.1654   -4.2925 N.am      1 <0>        -0.6686
     21 C11         2.9551    0.4207   -4.7158 C.ar      1 <0>         0.1685
     22 C12         4.0076   -0.3347   -4.2160 C.ar      1 <0>        -0.1058
     23 C13         5.2989   -0.0813   -4.6356 C.ar      1 <0>        -0.0812
     24 C14         5.5456    0.9240   -5.5524 C.ar      1 <0>        -0.1120
     25 C15         4.5000    1.6794   -6.0532 C.ar      1 <0>        -0.0137
     26 C16         3.2038    1.4266   -5.6412 C.ar      1 <0>        -0.0625
     27 Cl1         1.8908    2.3693   -6.2746 Cl        1 <0>        -0.0425
     28 Cl2         4.8143    2.9410   -7.2036 Cl        1 <0>        -0.0414
     29 H1          0.9864    1.8185    0.0071 H         1 <0>         0.0887
     30 H2         -0.5618    1.7948   -0.8708 H         1 <0>         0.0940
     31 H3         -0.5476    1.7791    0.9090 H         1 <0>         0.0984
     32 H4         -0.8142   -2.5445    3.4200 H         1 <0>         0.1288
     33 H5          0.9653   -2.5077    3.4057 H         1 <0>         0.1289
     34 H6         -0.7326   -3.3971   10.1968 H         1 <0>         0.0982
     35 H7          1.0421   -3.3523   10.1811 H         1 <0>         0.0983
     36 H8         -0.8000   -1.1081   10.3380 H         1 <0>         0.1245
     37 H9          0.9963   -1.0628   10.3221 H         1 <0>         0.1243
     38 H10        -0.5039   -1.1604   -3.1461 H         1 <0>         0.1392
     39 H11        -0.5384    0.5412   -2.6248 H         1 <0>         0.1210
     40 H12         0.9063    0.2714   -4.9115 H         1 <0>         0.4171
     41 H13         3.8167   -1.1198   -3.4994 H         1 <0>         0.1556
     42 H14         6.1173   -0.6690   -4.2467 H         1 <0>         0.1450
     43 H15         6.5565    1.1203   -5.8780 H         1 <0>         0.1458
     44 H16         0.1602   -4.3302    8.0829 H         1 <0>         0.4182
@<TRIPOS>BOND
     1    1    2 1
     2    1   29 1
     3    1   30 1
     4    1   31 1
     5    2    6 1
     6    2    3 1
     7    3    4 2
     8    3   17 1
     9    4    5 1
    10    5    6 2
    11    6    7 1
    12    7    8 1
    13    8    9 1
    14    8   32 1
    15    8   33 1
    16    9   10 2
    17    9   11 1
    18   11   12 2
    19   12   16 1
    20   12   13 1
    21   13   14 1
    22   13   44 1
    23   14   15 1
    24   14   34 1
    25   14   35 1
    26   15   16 1
    27   15   36 1
    28   15   37 1
    29   17   18 1
    30   17   38 1
    31   17   39 1
    32   18   19 2
    33   18   20 am
    34   20   21 1
    35   20   40 1
    36   21   26 ar
    37   21   22 ar
    38   22   23 ar
    39   22   41 1
    40   23   24 ar
    41   23   42 1
    42   24   25 ar
    43   24   43 1
    44   25   26 ar
    45   25   28 1
    46   26   27 1
@<TRIPOS>MOLECULE
ZINC39918721
   58    61     0     0     0
SMALL
USER_CHARGES

@<TRIPOS>ATOM
      1 C1          0.3170    1.3991   -0.1279 C.3       1 <0>        -0.1319
      2 C2          0.3211   -0.1074   -0.0920 C.2       1 <0>         0.2010
      3 C3          0.4111   -0.8007   -1.2471 C.2       1 <0>        -0.2350
      4 C4          0.4152   -2.2107   -1.2197 C.2       1 <0>         0.2291
      5 C5          0.3239   -2.8551   -0.0031 C.2       1 <0>        -0.2573
      6 C6          0.2329   -2.0940    1.1690 C.2       1 <0>         0.5477
      7 O1          0.1525   -2.6507    2.2529 O.2       1 <0>        -0.5017
      8 N1          0.2399   -0.7495    1.1029 N.am      1 <0>        -0.4938
      9 C7          0.1527    0.0337    2.3379 C.3       1 <0>         0.0889
     10 C8         -1.3167    0.3032    2.6682 C.3       1 <0>         0.0413
     11 O2         -1.9744   -0.9322    2.9568 O.3       1 <0>        -0.3682
     12 C9         -3.3593   -0.7917    3.2800 C.3       1 <0>         0.0330
     13 C10         0.3215   -4.3553    0.0681 C.3       1 <0>         0.1140
     14 C11         1.6112   -4.8664    0.6309 C.ar      1 <0>        -0.1378
     15 C12         2.9096   -4.7585    0.1813 C.ar      1 <0>        -0.0484
     16 C13         3.8970   -5.3587    0.9551 C.ar      1 <0>        -0.1548
     17 C14         3.5876   -6.0315    2.1196 C.ar      1 <0>        -0.0802
     18 C15         2.2844   -6.1442    2.5780 C.ar      1 <0>        -0.1467
     19 C16         1.2838   -5.5453    1.8106 C.ar      1 <0>         0.1795
     20 N2         -0.0818   -5.5011    2.0279 N.am      1 <0>        -0.5344
     21 C17        -0.7272   -4.8229    1.0569 C.2       1 <0>         0.5565
     22 O3         -1.9218   -4.6243    0.9883 O.2       1 <0>        -0.4873
     23 C18        -0.7483   -6.1178    3.1775 C.3       1 <0>         0.1209
     24 C19        -1.2667   -7.5025    2.7840 C.3       1 <0>        -0.1143
     25 C20        -0.0830   -8.4214    2.4752 C.3       1 <0>        -0.1460
     26 C21        -2.0804   -8.0896    3.9391 C.3       1 <0>        -0.1427
     27 C22         0.0508   -4.9500   -1.2836 C.2       1 <0>        -0.2522
     28 C23         0.1574   -4.2038   -2.4095 C.2       1 <0>         0.4442
     29 O4          0.5085   -2.9068   -2.3722 O.3       1 <0>        -0.2340
     30 N3         -0.1010   -4.7893   -3.6237 N.pl3     1 <0>        -0.8239
     31 C24        -0.3257   -6.3279   -1.3845 C.1       1 <0>         0.2673
     32 N4         -0.6244   -7.4210   -1.4646 N.1       1 <0>        -0.4265
     33 H1          1.3411    1.7669   -0.0643 H         1 <0>         0.0990
     34 H2         -0.1340    1.7391   -1.0601 H         1 <0>         0.0993
     35 H3         -0.2591    1.7810    0.7149 H         1 <0>         0.0834
     36 H4          0.4801   -0.2771   -2.1892 H         1 <0>         0.1635
     37 H5          0.6125   -0.5231    3.1544 H         1 <0>         0.1135
     38 H6          0.6749    0.9811    2.2049 H         1 <0>         0.1112
     39 H7         -1.3795    0.9596    3.5361 H         1 <0>         0.0688
     40 H8         -1.7990    0.7811    1.8156 H         1 <0>         0.0531
     41 H9         -3.7857   -1.7735    3.4858 H         1 <0>         0.0873
     42 H10        -3.4644   -0.1580    4.1606 H         1 <0>         0.0412
     43 H11        -3.8840   -0.3365    2.4400 H         1 <0>         0.0389
     44 H12         3.1492   -4.2321   -0.7308 H         1 <0>         0.1285
     45 H13         4.9276   -5.2972    0.6380 H         1 <0>         0.1232
     46 H14         4.3847   -6.4841    2.6907 H         1 <0>         0.1242
     47 H15         2.0527   -6.6734    3.4905 H         1 <0>         0.1307
     48 H16        -0.0390   -6.2155    3.9994 H         1 <0>         0.0856
     49 H17        -1.5842   -5.4926    3.4913 H         1 <0>         0.0868
     50 H18        -1.8996   -7.4160    1.9008 H         1 <0>         0.0722
     51 H19         0.5036   -8.5751    3.3810 H         1 <0>         0.0559
     52 H20        -0.4527   -9.3813    2.1146 H         1 <0>         0.0553
     53 H21         0.5433   -7.9626    1.7102 H         1 <0>         0.0553
     54 H22        -2.9237   -7.4349    4.1590 H         1 <0>         0.0571
     55 H23        -2.4497   -9.0761    3.6587 H         1 <0>         0.0598
     56 H24        -1.4475   -8.1761    4.8223 H         1 <0>         0.0576
     57 H25        -0.3557   -5.7242   -3.6669 H         1 <0>         0.4278
     58 H26        -0.0289   -4.2681   -4.4387 H         1 <0>         0.4140
@<TRIPOS>BOND
     1    1    2 1
     2    1   33 1
     3    1   34 1
     4    1   35 1
     5    2    8 1
     6    2    3 2
     7    3    4 1
     8    3   36 1
     9    4   29 1
    10    4    5 2
    11    5    6 1
    12    5   13 1
    13    6    7 2
    14    6    8 am
    15    8    9 1
    16    9   10 1
    17    9   37 1
    18    9   38 1
    19   10   11 1
    20   10   39 1
    21   10   40 1
    22   11   12 1
    23   12   41 1
    24   12   42 1
    25   12   43 1
    26   13   21 1
    27   13   14 1
    28   13   27 1
    29   14   19 ar
    30   14   15 ar
    31   15   16 ar
    32   15   44 1
    33   16   17 ar
    34   16   45 1
    35   17   18 ar
    36   17   46 1
    37   18   19 ar
    38   18   47 1
    39   19   20 1
    40   20   21 am
    41   20   23 1
    42   21   22 2
    43   23   24 1
    44   23   48 1
    45   23   49 1
    46   24   25 1
    47   24   26 1
    48   24   50 1
    49   25   51 1
    50   25   52 1
    51   25   53 1
    52   26   54 1
    53   26   55 1
    54   26   56 1
    55   27   28 2
    56   27   31 1
    57   28   29 1
    58   28   30 1
    59   30   57 1
    60   30   58 1
    61   31   32 3
@<TRIPOS>MOLECULE
ZINC39954783
   55    58     0     0     0
SMALL
USER_CHARGES

@<TRIPOS>ATOM
      1 C1         -0.3817    1.1729   -0.0853 C.ar      1 <0>        -0.0629
      2 C2          0.7750    1.9289   -0.1217 C.ar      1 <0>        -0.1392
      3 C3          2.0083    1.3047   -0.1411 C.ar      1 <0>        -0.0208
      4 C4          2.0848   -0.0755   -0.1235 C.ar      1 <0>        -0.6782
      5 C5          0.9280   -0.8314   -0.0862 C.ar      1 <0>        -0.0220
      6 C6         -0.3053   -0.2072   -0.0682 C.ar      1 <0>        -0.1393
      7 S1          3.6567   -0.8711   -0.1494 S.o2      1 <0>         2.6891
      8 O1          3.4442   -2.1732   -0.6772 O.2       1 <0>        -0.9496
      9 O2          4.5679    0.0488   -0.7347 O.2       1 <0>        -0.9510
     10 N1          4.1307   -1.0700    1.4248 N.pl3     1 <0>        -0.9957
     11 C7          4.9102   -0.0294    2.1091 C.3       1 <0>         0.1155
     12 C8          4.1983    0.3422    3.4137 C.3       1 <0>        -0.1344
     13 C9          3.9724   -0.9227    4.2450 C.3       1 <0>        -0.1101
     14 C10         3.0806   -1.8936    3.4677 C.3       1 <0>        -0.1225
     15 H1          2.1304   -1.4109    3.2387 H         1 <0>         0.1054
     16 C11         3.7746   -2.2879    2.1656 C.3       1 <0>         0.1400
     17 C12         2.8315   -3.1246    4.3006 C.2       1 <0>         0.5263
     18 O3          3.1761   -4.2132    3.8918 O.2       1 <0>        -0.5309
     19 N2          2.2260   -3.0157    5.4997 N.am      1 <0>        -0.7195
     20 C13         1.9839   -4.2124    6.3094 C.3       1 <0>         0.1014
     21 C14         1.2993   -3.8201    7.5933 C.2       1 <0>         0.5138
     22 O4          1.0392   -2.6557    7.8106 O.2       1 <0>        -0.5121
     23 N3          0.9760   -4.7634    8.5001 N.am      1 <0>        -0.6742
     24 C15         0.4401   -4.3934    9.7249 C.2       1 <0>         0.1697
     25 C16         1.0621   -4.7738   10.8942 C.2       1 <0>        -0.1234
     26 C17         0.4658   -4.2967   12.0671 C.2       1 <0>        -0.0816
     27 C18         0.3815   -4.7915   13.3182 C.2       1 <0>        -0.1715
     28 C19        -0.5715   -4.0548   14.0482 C.2       1 <0>         0.1373
     29 N4         -1.0416   -3.0458   13.3670 N.2       1 <0>        -0.4697
     30 C20        -0.3213   -2.9969   12.1026 C.3       1 <0>         0.0571
     31 H2          0.3646   -2.1498   12.1011 H         1 <0>         0.1482
     32 C21        -1.1867   -2.9541   10.8793 C.2       1 <0>        -0.0864
     33 C22        -0.7857   -3.5917    9.7784 C.2       1 <0>        -0.1248
     34 H3         -1.3451    1.6607   -0.0656 H         1 <0>         0.1317
     35 H4          0.7153    3.0071   -0.1354 H         1 <0>         0.1338
     36 H5          2.9120    1.8953   -0.1702 H         1 <0>         0.1394
     37 H6          0.9877   -1.9096   -0.0728 H         1 <0>         0.1391
     38 H7         -1.2090   -0.7978   -0.0395 H         1 <0>         0.1334
     39 H8          5.9079   -0.4076    2.3321 H         1 <0>         0.0807
     40 H9          4.9851    0.8505    1.4702 H         1 <0>         0.0944
     41 H10         4.8143    1.0428    3.9774 H         1 <0>         0.0848
     42 H11         3.2377    0.8038    3.1852 H         1 <0>         0.0715
     43 H12         4.9316   -1.3973    4.4522 H         1 <0>         0.0755
     44 H13         3.4880   -0.6578    5.1849 H         1 <0>         0.0736
     45 H14         3.1004   -2.8975    1.5641 H         1 <0>         0.0993
     46 H15         4.6776   -2.8542    2.3934 H         1 <0>         0.0896
     47 H16         1.9504   -2.1450    5.8266 H         1 <0>         0.4135
     48 H17         1.3487   -4.9035    5.7554 H         1 <0>         0.1058
     49 H18         2.9341   -4.6953    6.5372 H         1 <0>         0.1066
     50 H19         1.1181   -5.7010    8.2963 H         1 <0>         0.4162
     51 H20         1.9453   -5.3953   10.9049 H         1 <0>         0.1446
     52 H21         0.9547   -5.6230   13.7008 H         1 <0>         0.1469
     53 H22        -0.8777   -4.2969   15.0552 H         1 <0>         0.1737
     54 H23        -2.1198   -2.4104   10.8883 H         1 <0>         0.1375
     55 H24        -1.3940   -3.5171    8.8891 H         1 <0>         0.1244
@<TRIPOS>BOND
     1    1    6 ar
     2    1    2 ar
     3    1   34 1
     4    2    3 ar
     5    2   35 1
     6    3    4 ar
     7    3   36 1
     8    4    5 ar
     9    4    7 1
    10    5    6 ar
    11    5   37 1
    12    6   38 1
    13    7    8 2
    14    7    9 2
    15    7   10 1
    16   10   16 1
    17   10   11 1
    18   11   12 1
    19   11   39 1
    20   11   40 1
    21   12   13 1
    22   12   41 1
    23   12   42 1
    24   13   14 1
    25   13   43 1
    26   13   44 1
    27   14   15 1
    28   14   16 1
    29   14   17 1
    30   16   45 1
    31   16   46 1
    32   17   18 2
    33   17   19 am
    34   19   20 1
    35   19   47 1
    36   20   21 1
    37   20   48 1
    38   20   49 1
    39   21   22 2
    40   21   23 am
    41   23   24 1
    42   23   50 1
    43   24   33 1
    44   24   25 2
    45   25   26 1
    46   25   51 1
    47   26   30 1
    48   26   27 2
    49   27   28 1
    50   27   52 1
    51   28   29 2
    52   28   53 1
    53   29   30 1
    54   30   31 1
    55   30   32 1
    56   32   33 2
    57   32   54 1
    58   33   55 1
@<TRIPOS>MOLECULE
ZINC10033400
   57    60     0     0     0
SMALL
USER_CHARGES
N'-[7-(4-methoxyphenyl)-3,3-dioxo-3$l^{6}-thia-6,7-diazabicyclo[3.3.0]octa-5,8-dien-8-yl]-N-(2-methylcyclohexyl)-oxamide
@<TRIPOS>ATOM
      1 C1         -1.0880    7.0573   -4.2351 C.3       1 <0>        -0.1516
      2 C2         -1.1870    7.8436   -2.9264 C.3       1 <0>        -0.0994
      3 H1         -1.8854    8.6711   -3.0516 H         1 <0>         0.0916
      4 C3          0.1923    8.3921   -2.5554 C.3       1 <0>        -0.1191
      5 C4          0.0933    9.1784   -1.2466 C.3       1 <0>        -0.1222
      6 C5         -0.4047    8.2548   -0.1331 C.3       1 <0>        -0.1216
      7 C6         -1.7840    7.7064   -0.5042 C.3       1 <0>        -0.1326
      8 C7         -1.6850    6.9200   -1.8129 C.3       1 <0>         0.1486
      9 H2         -2.6677    6.5293   -2.0772 H         1 <0>         0.0958
     10 N1         -0.7464    5.8079   -1.6446 N.am      1 <0>        -0.6827
     11 C8         -1.1723    4.6394   -1.1252 C.2       1 <0>         0.5154
     12 O1         -2.3334    4.5085   -0.7970 O.2       1 <0>        -0.5118
     13 C9         -0.2157    3.5060   -0.9537 C.2       1 <0>         0.5116
     14 O2          0.9456    3.6369   -1.2820 O.2       1 <0>        -0.4713
     15 N2         -0.6416    2.3375   -0.4343 N.am      1 <0>        -0.6263
     16 C10         0.2691    1.3166   -0.1788 C.2       1 <0>         0.3402
     17 C11         1.6089    1.4722    0.1003 C.2       1 <0>        -0.2348
     18 C12         2.1521    0.2125    0.2845 C.2       1 <0>         0.0846
     19 N3          1.1884   -0.6839    0.1258 N.2       1 <0>        -0.2396
     20 N4         -0.0003   -0.0126   -0.1654 N.pl3     1 <0>        -0.3049
     21 C13        -1.2492   -0.6061   -0.4012 C.ar      1 <0>         0.0968
     22 C14        -2.3979   -0.0453    0.1404 C.ar      1 <0>        -0.0888
     23 C15        -3.6276   -0.6266   -0.0968 C.ar      1 <0>        -0.1830
     24 C16        -3.7142   -1.7775   -0.8668 C.ar      1 <0>         0.1408
     25 C17        -2.5659   -2.3416   -1.4036 C.ar      1 <0>        -0.1298
     26 C18        -1.3363   -1.7578   -1.1717 C.ar      1 <0>        -0.0555
     27 O3         -4.9245   -2.3529   -1.0951 O.3       1 <0>        -0.3099
     28 C19        -6.0646   -1.7188   -0.5119 C.3       1 <0>         0.0222
     29 C20         3.6440    0.1480    0.6075 C.3       1 <0>        -0.4980
     30 S1          4.0016    1.8885    1.0844 S.o2      1 <0>         2.3862
     31 O4          3.8558    2.0313    2.4906 O.2       1 <0>        -0.9217
     32 O5          5.2008    2.3136    0.4516 O.2       1 <0>        -0.9224
     33 C21         2.5600    2.6590    0.2401 C.3       1 <0>        -0.4662
     34 H3         -2.0707    6.6666   -4.4995 H         1 <0>         0.0576
     35 H4         -0.7332    7.7153   -5.0284 H         1 <0>         0.0618
     36 H5         -0.3897    6.2298   -4.1099 H         1 <0>         0.0553
     37 H6          0.8906    7.5646   -2.4301 H         1 <0>         0.0612
     38 H7          0.5471    9.0501   -3.3486 H         1 <0>         0.0710
     39 H8          1.0759    9.5691   -0.9823 H         1 <0>         0.0659
     40 H9         -0.6051   10.0059   -1.3719 H         1 <0>         0.0654
     41 H10         0.2936    7.4273   -0.0079 H         1 <0>         0.0613
     42 H11        -0.4753    8.8150    0.7992 H         1 <0>         0.0659
     43 H12        -2.4824    8.5338   -0.6294 H         1 <0>         0.0786
     44 H13        -2.1388    7.0484    0.2891 H         1 <0>         0.0698
     45 H14         0.1815    5.9125   -1.9069 H         1 <0>         0.4136
     46 H15        -1.5828    2.2081   -0.2386 H         1 <0>         0.4260
     47 H16        -2.3302    0.8481    0.7435 H         1 <0>         0.1303
     48 H17        -4.5218   -0.1881    0.3211 H         1 <0>         0.1447
     49 H18        -2.6338   -3.2376   -2.0026 H         1 <0>         0.1471
     50 H19        -0.4426   -2.1968   -1.5899 H         1 <0>         0.1454
     51 H20        -6.9636   -2.2781   -0.7709 H         1 <0>         0.1059
     52 H21        -5.9518   -1.6940    0.5720 H         1 <0>         0.0599
     53 H22        -6.1481   -0.7006   -0.8919 H         1 <0>         0.0601
     54 H23         3.8340   -0.5310    1.4387 H         1 <0>         0.1552
     55 H24         4.2208   -0.1427   -0.2705 H         1 <0>         0.1602
     56 H25         2.1190    3.4416    0.8575 H         1 <0>         0.1353
     57 H26         2.8434    3.0495   -0.7373 H         1 <0>         0.1612
@<TRIPOS>BOND
     1    1    2 1
     2    1   34 1
     3    1   35 1
     4    1   36 1
     5    2    3 1
     6    2    8 1
     7    2    4 1
     8    4    5 1
     9    4   37 1
    10    4   38 1
    11    5    6 1
    12    5   39 1
    13    5   40 1
    14    6    7 1
    15    6   41 1
    16    6   42 1
    17    7    8 1
    18    7   43 1
    19    7   44 1
    20    8    9 1
    21    8   10 1
    22   10   11 am
    23   10   45 1
    24   11   12 2
    25   11   13 1
    26   13   14 2
    27   13   15 am
    28   15   16 1
    29   15   46 1
    30   16   20 1
    31   16   17 2
    32   17   33 1
    33   17   18 1
    34   18   19 2
    35   18   29 1
    36   19   20 1
    37   20   21 1
    38   21   26 ar
    39   21   22 ar
    40   22   23 ar
    41   22   47 1
    42   23   24 ar
    43   23   48 1
    44   24   25 ar
    45   24   27 1
    46   25   26 ar
    47   25   49 1
    48   26   50 1
    49   27   28 1
    50   28   51 1
    51   28   52 1
    52   28   53 1
    53   29   30 1
    54   29   54 1
    55   29   55 1
    56   30   31 2
    57   30   32 2
    58   30   33 1
    59   33   56 1
    60   33   57 1
@<TRIPOS>MOLECULE
ZINC13565554
   65    69     0     0     0
SMALL
USER_CHARGES
(2R)-2-acetamido-3-(m-tolyl)-N-(1-BLAHyl-4-piperidyl)propanamide
@<TRIPOS>ATOM
      1 C1          3.7112   -0.7069   -0.0392 C.3       1 <0>        -0.1170
      2 C2          2.3960    0.0288   -0.0217 C.ar      1 <0>        -0.0833
      3 C3          1.2082   -0.6788   -0.0136 C.ar      1 <0>        -0.1227
      4 C4          0.0021   -0.0041    0.0020 C.ar      1 <0>        -0.1133
      5 C5         -0.0167    1.3783    0.0096 C.ar      1 <0>        -0.1242
      6 C6          1.1708    2.0856    0.0021 C.ar      1 <0>        -0.0748
      7 C7          2.3773    1.4107   -0.0141 C.ar      1 <0>        -0.1071
      8 C8          1.1503    3.5925    0.0104 C.3       1 <0>        -0.0945
      9 C9          1.1572    4.0946    1.4557 C.3       1 <0>         0.1442
     10 H1          0.3266    3.6457    2.0002 H         1 <0>         0.1080
     11 C10         1.0131    5.5947    1.4669 C.2       1 <0>         0.5021
     12 O1          1.9909    6.2968    1.6144 O.2       1 <0>        -0.5006
     13 N1         -0.2026    6.1560    1.3132 N.am      1 <0>        -0.7286
     14 C11        -0.3427    7.6142    1.3242 C.3       1 <0>         0.1464
     15 C12        -0.4645    8.1057    2.7692 C.3       1 <0>        -0.1202
     16 C13        -0.6732    9.6219    2.7713 C.3       1 <0>         0.0545
     17 N2         -1.8894    9.9521    2.0176 N.pl3     1 <0>        -0.4788
     18 C14        -1.7754    9.5322    0.6150 C.3       1 <0>         0.0531
     19 C15        -1.6012    8.0132    0.5485 C.3       1 <0>        -0.1189
     20 C16        -2.1768   11.2958    2.1086 C.2       1 <0>         0.3700
     21 C17        -3.3354   11.7273    2.7255 C.2       1 <0>        -0.1684
     22 C18        -3.5941   13.0930    2.8063 C.2       1 <0>         0.2289
     23 N3         -2.7437   13.9584    2.2874 N.2       1 <0>        -0.4582
     24 C19        -1.6215   13.5561    1.6821 C.2       1 <0>         0.4561
     25 N4         -1.3253   12.2256    1.5861 N.pl3     1 <0>        -0.3460
     26 N5         -0.1022   12.1391    0.9094 N.2       1 <0>        -0.3439
     27 C20         0.2729   13.3648    0.6362 C.2       1 <0>         0.2571
     28 N6         -0.6315   14.2207    1.0956 N.2       1 <0>        -0.5276
     29 C21        -4.9070   13.3157    3.5265 C.3       1 <0>        -0.0741
     30 C22        -5.1971   11.9900    4.2615 C.3       1 <0>        -0.1192
     31 C23        -4.4497   10.9549    3.3938 C.3       1 <0>        -0.0541
     32 N7          2.4204    3.7206    2.0966 N.am      1 <0>        -0.7204
     33 C24         3.5890    4.1638    1.5923 C.2       1 <0>         0.5173
     34 O2          3.5949    4.8723    0.6080 O.2       1 <0>        -0.5149
     35 C25         4.8884    3.7791    2.2516 C.3       1 <0>        -0.1726
     36 H2          4.0178   -0.8784   -1.0711 H         1 <0>         0.0712
     37 H3          4.4679   -0.1105    0.4703 H         1 <0>         0.0656
     38 H4          3.5990   -1.6639    0.4703 H         1 <0>         0.0671
     39 H5          1.2229   -1.7586   -0.0199 H         1 <0>         0.1208
     40 H6         -0.9258   -0.5567    0.0079 H         1 <0>         0.1222
     41 H7         -0.9592    1.9056    0.0170 H         1 <0>         0.1208
     42 H8          3.3052    1.9634   -0.0204 H         1 <0>         0.1164
     43 H9          2.0303    3.9707   -0.5098 H         1 <0>         0.1026
     44 H10         0.2506    3.9464   -0.4929 H         1 <0>         0.0831
     45 H11        -0.9847    5.5945    1.1953 H         1 <0>         0.3992
     46 H12         0.5318    8.0677    0.8576 H         1 <0>         0.0897
     47 H13        -1.3157    7.6215    3.2478 H         1 <0>         0.0777
     48 H14         0.4474    7.8622    3.3145 H         1 <0>         0.0796
     49 H15         0.1852   10.1063    2.3059 H         1 <0>         0.0638
     50 H16        -0.7757    9.9728    3.7981 H         1 <0>         0.0818
     51 H17        -0.9118   10.0171    0.1598 H         1 <0>         0.0680
     52 H18        -2.6786    9.8181    0.0759 H         1 <0>         0.0836
     53 H19        -1.5009    7.7036   -0.4918 H         1 <0>         0.0831
     54 H20        -2.4708    7.5274    0.9912 H         1 <0>         0.0824
     55 H21         1.1795   13.6369    0.1161 H         1 <0>         0.2322
     56 H22        -4.8115   14.1318    4.2427 H         1 <0>         0.1016
     57 H23        -5.6990   13.5334    2.8099 H         1 <0>         0.1083
     58 H24        -4.7918   12.0117    5.2731 H         1 <0>         0.0820
     59 H25        -6.2669   11.7820    4.2765 H         1 <0>         0.0941
     60 H26        -4.0413   10.1612    4.0195 H         1 <0>         0.0902
     61 H27        -5.1198   10.5366    2.6427 H         1 <0>         0.0918
     62 H28         2.4156    3.1540    2.8838 H         1 <0>         0.4048
     63 H29         5.2590    2.8534    1.8114 H         1 <0>         0.0908
     64 H30         5.6210    4.5719    2.1008 H         1 <0>         0.0932
     65 H31         4.7249    3.6337    3.3194 H         1 <0>         0.0776
@<TRIPOS>BOND
     1    1    2 1
     2    1   36 1
     3    1   37 1
     4    1   38 1
     5    2    7 ar
     6    2    3 ar
     7    3    4 ar
     8    3   39 1
     9    4    5 ar
    10    4   40 1
    11    5    6 ar
    12    5   41 1
    13    6    7 ar
    14    6    8 1
    15    7   42 1
    16    8    9 1
    17    8   43 1
    18    8   44 1
    19    9   10 1
    20    9   11 1
    21    9   32 1
    22   11   12 2
    23   11   13 am
    24   13   14 1
    25   13   45 1
    26   14   19 1
    27   14   15 1
    28   14   46 1
    29   15   16 1
    30   15   47 1
    31   15   48 1
    32   16   17 1
    33   16   49 1
    34   16   50 1
    35   17   18 1
    36   17   20 1
    37   18   19 1
    38   18   51 1
    39   18   52 1
    40   19   53 1
    41   19   54 1
    42   20   25 1
    43   20   21 2
    44   21   31 1
    45   21   22 1
    46   22   23 2
    47   22   29 1
    48   23   24 1
    49   24   28 2
    50   24   25 1
    51   25   26 1
    52   26   27 2
    53   27   28 1
    54   27   55 1
    55   29   30 1
    56   29   56 1
    57   29   57 1
    58   30   31 1
    59   30   58 1
    60   30   59 1
    61   31   60 1
    62   31   61 1
    63   32   33 am
    64   32   62 1
    65   33   34 2
    66   33   35 1
    67   35   63 1
    68   35   64 1
    69   35   65 1
@<TRIPOS>MOLECULE
ZINC33021395
   56    59     0     0     0
SMALL
USER_CHARGES
(3R)-N-[(1R)-2-(2-furyl)-1-methyl-ethyl]-1-[(3-oxo-4H-1,4-benzoxazin-6-yl)sulfonyl]piperidine-3-carboxamide
@<TRIPOS>ATOM
      1 C1         -9.8563    8.4182    1.5835 C.3       1 <0>        -0.1635
      2 C2         -8.6876    9.3005    2.0270 C.3       1 <0>         0.1473
      3 H1         -8.1841    8.8652    2.9028 H         1 <0>         0.0923
      4 C3         -9.2015   10.7061    2.3445 C.3       1 <0>        -0.0486
      5 C4         -8.0747   11.5399    2.8978 C.2       1 <0>        -0.0120
      6 C5         -7.2290   12.2975    2.1764 C.2       1 <0>        -0.2054
      7 C6         -6.3375   12.9017    3.0923 C.2       1 <0>        -0.2133
      8 C7         -6.6917   12.4773    4.3186 C.2       1 <0>        -0.0394
      9 O1         -7.7481   11.6573    4.1952 O.3       1 <0>        -0.1755
     10 N1         -7.6959    9.3745    0.9513 N.am      1 <0>        -0.7335
     11 C8         -6.7575    8.4143    0.8325 C.2       1 <0>         0.5257
     12 O2         -6.7341    7.4891    1.6163 O.2       1 <0>        -0.5408
     13 C9         -5.7374    8.4905   -0.2741 C.3       1 <0>        -0.1196
     14 H2         -5.1676    9.4245   -0.1606 H         1 <0>         0.1052
     15 C10        -6.4505    8.4751   -1.6281 C.3       1 <0>        -0.1084
     16 C11        -5.4175    8.5855   -2.7519 C.3       1 <0>        -0.1319
     17 C12        -4.4710    7.3880   -2.6899 C.3       1 <0>         0.1104
     18 N2         -3.8909    7.3058   -1.3425 N.pl3     1 <0>        -0.9952
     19 C13        -4.7947    7.2863   -0.1842 C.3       1 <0>         0.1351
     20 S1         -2.2494    7.2433   -1.1329 S.o2      1 <0>         2.6937
     21 O3         -1.9882    7.7309    0.1760 O.2       1 <0>        -0.9496
     22 O4         -1.6695    7.8251   -2.2924 O.2       1 <0>        -0.9483
     23 C14        -1.7880    5.5428   -1.1382 C.ar      1 <0>        -0.6723
     24 C15        -1.4541    4.9229   -2.3283 C.ar      1 <0>        -0.0097
     25 C16        -1.0896    3.5886   -2.3408 C.ar      1 <0>        -0.1265
     26 C17        -1.0596    2.8711   -1.1578 C.ar      1 <0>         0.1316
     27 C18        -1.3971    3.4958    0.0418 C.ar      1 <0>         0.0805
     28 C19        -1.7604    4.8323    0.0479 C.ar      1 <0>        -0.0249
     29 N3         -1.3640    2.7566    1.2328 N.am      1 <0>        -0.6730
     30 C20        -0.7170    1.5713    1.2494 C.2       1 <0>         0.4925
     31 O5         -0.7019    0.9004    2.2598 O.2       1 <0>        -0.5046
     32 C21        -0.0127    1.0858    0.0080 C.3       1 <0>         0.0447
     33 O6         -0.7030    1.5589   -1.1515 O.3       1 <0>        -0.2977
     34 H3         -9.4867    7.4076    1.3552 H         1 <0>         0.0652
     35 H4        -10.3215    8.8501    0.6851 H         1 <0>         0.0609
     36 H5        -10.6009    8.3626    2.3913 H         1 <0>         0.0687
     37 H6         -9.5855   11.1724    1.4252 H         1 <0>         0.1016
     38 H7        -10.0095   10.6418    3.0882 H         1 <0>         0.0994
     39 H8         -7.2311   12.4209    1.1035 H         1 <0>         0.1449
     40 H9         -5.5277   13.5751    2.8533 H         1 <0>         0.1478
     41 H10        -6.2113   12.7533    5.2457 H         1 <0>         0.2020
     42 H11        -7.7171   10.2137    0.2405 H         1 <0>         0.4172
     43 H12        -7.0106    7.5346   -1.7368 H         1 <0>         0.0735
     44 H13        -7.1464    9.3251   -1.6857 H         1 <0>         0.0728
     45 H14        -5.9327    8.5968   -3.7237 H         1 <0>         0.0849
     46 H15        -4.8422    9.5153   -2.6311 H         1 <0>         0.0739
     47 H16        -5.0304    6.4667   -2.9097 H         1 <0>         0.0746
     48 H17        -3.6690    7.5157   -3.4318 H         1 <0>         0.0992
     49 H18        -4.2104    7.3467    0.7458 H         1 <0>         0.1015
     50 H19        -5.3846    6.3578   -0.1870 H         1 <0>         0.0833
     51 H20        -1.4776    5.4827   -3.2515 H         1 <0>         0.1525
     52 H21        -0.8294    3.1076   -3.2721 H         1 <0>         0.1521
     53 H22        -2.0211    5.3184    0.9765 H         1 <0>         0.1509
     54 H23        -1.8603    3.1443    2.1347 H         1 <0>         0.4471
     55 H24         1.0194    1.4663   -0.0005 H         1 <0>         0.1069
     56 H25         0.0020   -0.0141    0.0012 H         1 <0>         0.1540
@<TRIPOS>BOND
     1    1    2 1
     2    1   34 1
     3    1   35 1
     4    1   36 1
     5    2    3 1
     6    2    4 1
     7    2   10 1
     8    4    5 1
     9    4   37 1
    10    4   38 1
    11    5    9 1
    12    5    6 2
    13    6    7 1
    14    6   39 1
    15    7    8 2
    16    7   40 1
    17    8    9 1
    18    8   41 1
    19   10   11 am
    20   10   42 1
    21   11   12 2
    22   11   13 1
    23   13   14 1
    24   13   19 1
    25   13   15 1
    26   15   16 1
    27   15   43 1
    28   15   44 1
    29   16   17 1
    30   16   45 1
    31   16   46 1
    32   17   18 1
    33   17   47 1
    34   17   48 1
    35   18   19 1
    36   18   20 1
    37   19   49 1
    38   19   50 1
    39   20   21 2
    40   20   22 2
    41   20   23 1
    42   23   28 ar
    43   23   24 ar
    44   24   25 ar
    45   24   51 1
    46   25   26 ar
    47   25   52 1
    48   26   33 1
    49   26   27 ar
    50   27   28 ar
    51   27   29 1
    52   28   53 1
    53   29   30 am
    54   29   54 1
    55   30   31 2
    56   30   32 1
    57   32   33 1
    58   32   55 1
    59   32   56 1
@<TRIPOS>MOLECULE
ZINC39446403
   41    43     0     0     0
SMALL
USER_CHARGES

@<TRIPOS>ATOM
      1 C1         -0.0187    1.5258    0.0104 C.3       1 <0>        -0.1662
      2 C2          0.0021   -0.0041    0.0020 C.3       1 <0>         0.1036
      3 H1          0.5212   -0.3674   -0.8849 H         1 <0>         0.1298
      4 C3         -1.4053   -0.5429    0.0376 C.2       1 <0>        -0.0460
      5 C4         -2.4119   -0.6923   -0.9236 C.2       1 <0>         0.0859
      6 N1         -3.5653   -1.2064   -0.5885 N.2       1 <0>        -0.1993
      7 N2         -3.8303   -1.5918    0.6073 N.am      1 <0>        -0.4405
      8 C5         -2.9258   -1.4894    1.6032 C.2       1 <0>         0.5080
      9 O1         -3.2006   -1.8632    2.7322 O.2       1 <0>        -0.5133
     10 C6         -1.6614   -0.9453    1.3185 C.2       1 <0>        -0.2197
     11 H2         -4.7042   -1.9663    0.7999 H         1 <0>         0.4473
     12 C7         -0.4270   -0.6763    2.1391 C.3       1 <0>         0.3619
     13 H3         -0.2164   -1.5247    2.7903 H         1 <0>         0.1483
     14 O2          0.6465   -0.4985    1.1920 O.3       1 <0>        -0.3352
     15 N3         -0.6056    0.5396    2.9365 N.am      1 <0>        -0.7237
     16 C8         -0.0636    0.6238    4.1676 C.2       1 <0>         0.5281
     17 O3          0.5722   -0.3070    4.6152 O.2       1 <0>        -0.4940
     18 C9         -0.2474    1.8746    4.9878 C.3       1 <0>         0.0464
     19 O4          0.4151    1.7216    6.2447 O.3       1 <0>        -0.2990
     20 C10         0.3467    2.7581    7.1022 C.2       1 <0>         0.5243
     21 O5         -0.2587    3.7641    6.7917 O.2       1 <0>        -0.4660
     22 C11         1.0088    2.6710    8.4221 C.ar      1 <0>         0.1174
     23 C12         0.9294    3.7456    9.3079 C.ar      1 <0>        -0.0225
     24 C13         1.5562    3.6483   10.5429 C.ar      1 <0>        -0.0016
     25 C14         2.2400    2.4790   10.8470 C.ar      1 <0>        -0.0477
     26 C15         2.2765    1.4511    9.9160 C.ar      1 <0>         0.1320
     27 N4          1.6693    1.5681    8.7559 N.ar      1 <0>        -0.3920
     28 Cl1         3.0419    2.3050   12.3768 Cl        1 <0>        -0.0007
     29 Cl2         1.4871    4.9583   11.6799 Cl        1 <0>         0.0095
     30 Cl3         0.0600    5.1837    8.8722 Cl        1 <0>         0.0241
     31 C16        -2.1653   -0.2594   -2.3458 C.3       1 <0>        -0.0930
     32 H4          1.0039    1.9031    0.0027 H         1 <0>         0.0839
     33 H5         -0.5459    1.8868   -0.8726 H         1 <0>         0.0795
     34 H6         -0.5289    1.8773    0.9072 H         1 <0>         0.0591
     35 H7         -1.1141    1.2840    2.5785 H         1 <0>         0.4000
     36 H8          0.1776    2.7247    4.4542 H         1 <0>         0.1076
     37 H9         -1.3106    2.0458    5.1560 H         1 <0>         0.1069
     38 H10         2.8076    0.5402   10.1494 H         1 <0>         0.1960
     39 H11        -1.7523   -1.0935   -2.9131 H         1 <0>         0.0884
     40 H12        -3.1054    0.0571   -2.7975 H         1 <0>         0.0872
     41 H13        -1.4597    0.5714   -2.3555 H         1 <0>         0.0852
@<TRIPOS>BOND
     1    1    2 1
     2    1   32 1
     3    1   33 1
     4    1   34 1
     5    2    3 1
     6    2   14 1
     7    2    4 1
     8    4   10 2
     9    4    5 1
    10    5   31 1
    11    5    6 2
    12    6    7 1
    13    7    8 am
    14    7   11 1
    15    8    9 2
    16    8   10 1
    17   10   12 1
    18   12   13 1
    19   12   14 1
    20   12   15 1
    21   15   16 am
    22   15   35 1
    23   16   17 2
    24   16   18 1
    25   18   19 1
    26   18   36 1
    27   18   37 1
    28   19   20 1
    29   20   21 2
    30   20   22 1
    31   22   27 ar
    32   22   23 ar
    33   23   24 ar
    34   23   30 1
    35   24   25 ar
    36   24   29 1
    37   25   26 ar
    38   25   28 1
    39   26   27 ar
    40   26   38 1
    41   31   39 1
    42   31   40 1
    43   31   41 1
@<TRIPOS>MOLECULE
ZINC60348381
   55    58     0     0     0
SMALL
USER_CHARGES

@<TRIPOS>ATOM
      1 C1         -0.0044    1.5058    0.0210 C.3       1 <0>        -0.2014
      2 C2          0.0171   -0.0010    0.0157 C.2       1 <0>         0.3400
      3 O1          0.0433   -0.6082    1.0593 O.2       1 <0>        -0.4243
      4 C3          0.0057   -0.7502   -1.2918 C.3       1 <0>         0.0591
      5 H1         -0.6787   -0.2783   -1.9967 H         1 <0>         0.1241
      6 C4          1.4264   -0.8270   -1.8847 C.3       1 <0>        -0.0917
      7 C5          1.7186   -2.3094   -1.9424 C.2       1 <0>         0.0154
      8 N1          0.7011   -2.9670   -1.4865 N.2       1 <0>        -0.1636
      9 N2         -0.3619   -2.1587   -1.0778 N.pl3     1 <0>        -0.4424
     10 C6         -1.5734   -2.6100   -0.5511 C.ar      1 <0>         0.2214
     11 C7         -2.5562   -1.6985   -0.1844 C.ar      1 <0>        -0.1667
     12 C8         -3.7532   -2.1486    0.3364 C.ar      1 <0>        -0.0781
     13 C9         -3.9747   -3.5047    0.4932 C.ar      1 <0>        -0.1533
     14 C10        -2.9990   -4.4148    0.1293 C.ar      1 <0>        -0.0814
     15 C11        -1.8017   -3.9722   -0.3974 C.ar      1 <0>        -0.1535
     16 C12         2.9582   -2.9073   -2.4370 C.2       1 <0>         0.6016
     17 O2          3.8568   -2.1951   -2.8458 O.2       1 <0>        -0.4983
     18 N3          3.1058   -4.2470   -2.4401 N.am      1 <0>        -0.6561
     19 C13         4.2496   -4.8231   -3.0012 C.ar      1 <0>         0.1209
     20 C14         4.1602   -6.0355   -3.6734 C.ar      1 <0>        -0.0822
     21 C15         5.2916   -6.6015   -4.2267 C.ar      1 <0>        -0.1186
     22 C16         6.5130   -5.9628   -4.1120 C.ar      1 <0>        -0.0286
     23 C17         6.6055   -4.7559   -3.4437 C.ar      1 <0>        -0.6199
     24 C18         5.4765   -4.1816   -2.8928 C.ar      1 <0>        -0.0182
     25 S1          8.1640   -3.9465   -3.3004 S.o2      1 <0>         2.6261
     26 O3          8.0803   -3.1034   -2.1596 O.2       1 <0>        -0.9813
     27 O4          9.1581   -4.9531   -3.4325 O.2       1 <0>        -0.9769
     28 N4          8.3211   -2.9508   -4.6143 N.2       1 <0>        -0.9804
     29 C19         9.3866   -2.2318   -4.7570 C.2       1 <0>         0.5345
     30 N5         10.4497   -2.2144   -3.8938 N.pl3     1 <0>        -0.7572
     31 C20        11.6341   -1.6919   -4.5943 C.3       1 <0>         0.0991
     32 C21        11.0617   -0.7114   -5.6420 C.3       1 <0>        -0.1386
     33 C22         9.6535   -1.2852   -5.9065 C.3       1 <0>        -0.0950
     34 H2          1.0179    1.8838    0.0049 H         1 <0>         0.1035
     35 H3         -0.5383    1.8646   -0.8590 H         1 <0>         0.0902
     36 H4         -0.5082    1.8589    0.9207 H         1 <0>         0.0935
     37 H5          1.4470   -0.3942   -2.8849 H         1 <0>         0.1218
     38 H6          2.1400   -0.3218   -1.2338 H         1 <0>         0.1101
     39 H7         -2.3838   -0.6393   -0.3062 H         1 <0>         0.1156
     40 H8         -4.5173   -1.4408    0.6219 H         1 <0>         0.1284
     41 H9         -4.9118   -3.8539    0.9010 H         1 <0>         0.1253
     42 H10        -3.1753   -5.4731    0.2532 H         1 <0>         0.1284
     43 H11        -1.0420   -4.6836   -0.6858 H         1 <0>         0.1307
     44 H12         2.4184   -4.8115   -2.0532 H         1 <0>         0.4215
     45 H13         3.2068   -6.5351   -3.7627 H         1 <0>         0.1387
     46 H14         5.2228   -7.5441   -4.7494 H         1 <0>         0.1421
     47 H15         7.3966   -6.4079   -4.5451 H         1 <0>         0.1433
     48 H16         5.5486   -3.2367   -2.3747 H         1 <0>         0.1570
     49 H17        12.2870   -1.1660   -3.8977 H         1 <0>         0.0935
     50 H18        12.1736   -2.5016   -5.0856 H         1 <0>         0.0832
     51 H19        11.0019    0.2979   -5.2348 H         1 <0>         0.0894
     52 H20        11.6597   -0.7269   -6.5532 H         1 <0>         0.0991
     53 H21         9.6352   -1.8255   -6.8530 H         1 <0>         0.1160
     54 H22         8.9160   -0.4827   -5.9143 H         1 <0>         0.1177
     55 H23        10.4260   -2.5013   -2.9675 H         1 <0>         0.4165
@<TRIPOS>BOND
     1    1    2 1
     2    1   34 1
     3    1   35 1
     4    1   36 1
     5    2    3 2
     6    2    4 1
     7    4    5 1
     8    4    9 1
     9    4    6 1
    10    6    7 1
    11    6   37 1
    12    6   38 1
    13    7    8 2
    14    7   16 1
    15    8    9 1
    16    9   10 1
    17   10   15 ar
    18   10   11 ar
    19   11   12 ar
    20   11   39 1
    21   12   13 ar
    22   12   40 1
    23   13   14 ar
    24   13   41 1
    25   14   15 ar
    26   14   42 1
    27   15   43 1
    28   16   17 2
    29   16   18 am
    30   18   19 1
    31   18   44 1
    32   19   24 ar
    33   19   20 ar
    34   20   21 ar
    35   20   45 1
    36   21   22 ar
    37   21   46 1
    38   22   23 ar
    39   22   47 1
    40   23   24 ar
    41   23   25 1
    42   24   48 1
    43   25   26 2
    44   25   27 2
    45   25   28 1
    46   28   29 2
    47   29   33 1
    48   29   30 1
    49   30   31 1
    50   30   55 1
    51   31   32 1
    52   31   49 1
    53   31   50 1
    54   32   33 1
    55   32   51 1
    56   32   52 1
    57   33   53 1
    58   33   54 1
@<TRIPOS>MOLECULE
ZINC02780451
   42    43     0     0     0
SMALL
USER_CHARGES
4-[[(2R)-2-[4-bromo-5-methyl-3-(trifluoromethyl)pyrazol-1-yl]propanoyl]amino]-1-ethyl-pyrazole-3-carboxamide
@<TRIPOS>ATOM
      1 C1          0.0021   -0.0041    0.0020 C.3       1 <0>        -0.1685
      2 C2         -0.0187    1.5258    0.0104 C.3       1 <0>         0.1169
      3 N1         -0.7044    1.9982    1.2158 N.pl3     1 <0>        -0.2691
      4 C3         -0.1751    2.8574    2.1241 C.2       1 <0>        -0.0236
      5 C4         -1.1155    3.0491    3.0870 C.2       1 <0>         0.0811
      6 C5         -2.2214    2.2495    2.6985 C.2       1 <0>        -0.0425
      7 N2         -1.8908    1.6550    1.5684 N.2       1 <0>        -0.2386
      8 C6         -3.4994    2.1095    3.4218 C.2       1 <0>         0.6169
      9 O1         -3.6797    2.7155    4.4604 O.2       1 <0>        -0.5469
     10 N3         -4.4672    1.3099    2.9314 N.am      1 <0>        -0.8369
     11 N4         -1.0121    3.8610    4.2270 N.am      1 <0>        -0.6246
     12 C7          0.1155    4.5634    4.4541 C.2       1 <0>         0.5027
     13 O2          1.0411    4.4937    3.6731 O.2       1 <0>        -0.4974
     14 C8          0.2266    5.4353    5.6782 C.3       1 <0>         0.1472
     15 H1         -0.5561    6.1936    5.6564 H         1 <0>         0.1423
     16 C9          0.0680    4.5748    6.9333 C.3       1 <0>        -0.1648
     17 N5          1.5382    6.0876    5.6958 N.pl3     1 <0>        -0.3326
     18 C10         1.7635    7.4187    5.6868 C.2       1 <0>         0.1377
     19 C11         3.1033    7.6103    5.7103 C.2       1 <0>        -0.2100
     20 C12         3.7173    6.3533    5.7345 C.2       1 <0>         0.0113
     21 N6          2.7801    5.4403    5.7311 N.2       1 <0>        -0.1950
     22 C13         5.2018    6.0956    5.7660 C.3       1 <0>         0.5542
     23 F1          5.6354    6.0287    7.0944 F         1 <0>        -0.1637
     24 F2          5.4785    4.8840    5.1235 F         1 <0>        -0.1633
     25 F3          5.8696    7.1348    5.1092 F         1 <0>        -0.1550
     26 Br1         3.9886    9.2813    5.7094 Br        1 <0>         0.0098
     27 C14         0.7119    8.4978    5.6556 C.3       1 <0>        -0.1052
     28 H2          0.5123   -0.3556   -0.8948 H         1 <0>         0.0836
     29 H3          0.5293   -0.3651    0.8851 H         1 <0>         0.0644
     30 H4         -1.0205   -0.3814    0.0098 H         1 <0>         0.0737
     31 H5          1.0039    1.9031    0.0027 H         1 <0>         0.1082
     32 H6         -0.5459    1.8868   -0.8726 H         1 <0>         0.0984
     33 H7          0.8068    3.3057    2.0875 H         1 <0>         0.2046
     34 H8         -4.3233    0.8264    2.1029 H         1 <0>         0.4096
     35 H9         -5.3075    1.2178    3.4070 H         1 <0>         0.4088
     36 H10        -1.7522    3.9168    4.8515 H         1 <0>         0.4261
     37 H11         0.8507    3.8164    6.9552 H         1 <0>         0.0829
     38 H12         0.1484    5.2054    7.8187 H         1 <0>         0.0847
     39 H13        -0.9079    4.0895    6.9202 H         1 <0>         0.0924
     40 H14         0.4385    8.7683    6.6755 H         1 <0>         0.0984
     41 H15         1.1056    9.3740    5.1404 H         1 <0>         0.1006
     42 H16        -0.1689    8.1315    5.1283 H         1 <0>         0.0814
@<TRIPOS>BOND
     1    1    2 1
     2    1   28 1
     3    1   29 1
     4    1   30 1
     5    2    3 1
     6    2   31 1
     7    2   32 1
     8    3    7 1
     9    3    4 1
    10    4    5 2
    11    4   33 1
    12    5    6 1
    13    5   11 1
    14    6    7 2
    15    6    8 1
    16    8    9 2
    17    8   10 am
    18   10   34 1
    19   10   35 1
    20   11   12 am
    21   11   36 1
    22   12   13 2
    23   12   14 1
    24   14   15 1
    25   14   16 1
    26   14   17 1
    27   16   37 1
    28   16   38 1
    29   16   39 1
    30   17   21 1
    31   17   18 1
    32   18   19 2
    33   18   27 1
    34   19   20 1
    35   19   26 1
    36   20   21 2
    37   20   22 1
    38   22   23 1
    39   22   24 1
    40   22   25 1
    41   27   40 1
    42   27   41 1
    43   27   42 1
@<TRIPOS>MOLECULE
ZINC38695394
   53    55     0     0     0
SMALL
USER_CHARGES

@<TRIPOS>ATOM
      1 C1          4.9214   -0.4084    0.4674 C.3       1 <0>        -0.1527
      2 C2          3.5326   -0.1487   -0.1197 C.3       1 <0>         0.0798
      3 O1          3.1986   -1.1950   -1.0339 O.3       1 <0>        -0.3641
      4 C3          1.9999   -1.1161   -1.6418 C.2       1 <0>         0.6510
      5 O2          1.2576   -0.1843   -1.4027 O.2       1 <0>        -0.5718
      6 N1          1.6233   -2.0706   -2.5156 N.am      1 <0>        -0.5976
      7 C4          2.5039   -3.2100   -2.8148 C.3       1 <0>         0.1197
      8 C5          2.6453   -3.3296   -4.3360 C.3       1 <0>         0.0329
      9 N2          1.3102   -3.3999   -4.9446 N.3       1 <0>        -0.5161
     10 C6          0.5482   -2.1677   -4.7015 C.3       1 <0>         0.0400
     11 C7          0.3183   -2.0036   -3.1907 C.3       1 <0>         0.1343
     12 C8          1.4015   -3.6874   -6.3823 C.3       1 <0>         0.0737
     13 H1          0.4306   -3.5199   -6.8487 H         1 <0>         0.1150
     14 C9          2.4405   -2.7643   -7.0220 C.3       1 <0>        -0.1873
     15 C10         1.8139   -5.1229   -6.5823 C.2       1 <0>         0.5180
     16 O3          2.2452   -5.7657   -5.6486 O.2       1 <0>        -0.4792
     17 N3          1.7035   -5.6926   -7.7988 N.am      1 <0>        -0.6198
     18 C11         2.0830   -7.0135   -7.9828 C.2       1 <0>         0.0365
     19 C12         2.0455   -7.7542   -9.1495 C.2       1 <0>        -0.2263
     20 C13         2.5065   -9.1398   -9.0787 C.2       1 <0>        -0.0904
     21 C14         2.9153   -9.5198   -7.8548 C.2       1 <0>        -0.2518
     22 S1          2.6999   -8.0778   -6.8429 S.3       1 <0>         0.3259
     23 C15         3.3745  -10.9527   -7.8367 C.3       1 <0>        -0.0309
     24 C16         2.7979  -11.5637   -9.1332 C.3       1 <0>        -0.1160
     25 C17         2.6637  -10.3200  -10.0350 C.3       1 <0>        -0.0599
     26 C18         1.5627   -7.1740  -10.4066 C.2       1 <0>         0.5849
     27 O4          2.3416   -6.6193  -11.1595 O.2       1 <0>        -0.5352
     28 N4          0.2564   -7.2550  -10.7282 N.am      1 <0>        -0.8482
     29 H2          4.9210   -1.3635    0.9927 H         1 <0>         0.0673
     30 H3          5.6564   -0.4364   -0.3369 H         1 <0>         0.0663
     31 H4          5.1761    0.3897    1.1648 H         1 <0>         0.0826
     32 H5          2.7975   -0.1207    0.6847 H         1 <0>         0.0684
     33 H6          3.5329    0.8064   -0.6449 H         1 <0>         0.0673
     34 H7          3.4840   -3.0426   -2.3681 H         1 <0>         0.0973
     35 H8          2.0674   -4.1251   -2.4146 H         1 <0>         0.0827
     36 H9          3.1755   -2.4588   -4.7216 H         1 <0>         0.0440
     37 H10         3.2040   -4.2334   -4.5794 H         1 <0>         0.1077
     38 H11         1.1076   -1.3131   -5.0820 H         1 <0>         0.0475
     39 H12        -0.4140   -2.2287   -5.2100 H         1 <0>         0.0949
     40 H13        -0.3242   -2.8050   -2.8259 H         1 <0>         0.0834
     41 H14        -0.1473   -1.0382   -2.9926 H         1 <0>         0.1027
     42 H15         3.4114   -2.9318   -6.5556 H         1 <0>         0.0728
     43 H16         2.5083   -2.9776   -8.0888 H         1 <0>         0.0718
     44 H17         2.1422   -1.7260   -6.8773 H         1 <0>         0.0769
     45 H18         1.3585   -5.1785   -8.5455 H         1 <0>         0.4181
     46 H19         4.4633  -11.0029   -7.8445 H         1 <0>         0.0843
     47 H20         2.9757  -11.4686   -6.9633 H         1 <0>         0.0794
     48 H21         3.4903  -12.2861   -9.5654 H         1 <0>         0.0841
     49 H22         1.8249  -12.0196   -8.9502 H         1 <0>         0.0769
     50 H23         1.7840  -10.4091  -10.6723 H         1 <0>         0.0715
     51 H24         3.5600  -10.1963  -10.6429 H         1 <0>         0.0817
     52 H25        -0.3644   -7.6972  -10.1281 H         1 <0>         0.4035
     53 H26        -0.0630   -6.8712  -11.5598 H         1 <0>         0.4028
@<TRIPOS>BOND
     1    1    2 1
     2    1   29 1
     3    1   30 1
     4    1   31 1
     5    2    3 1
     6    2   32 1
     7    2   33 1
     8    3    4 1
     9    4    5 2
    10    4    6 am
    11    6   11 1
    12    6    7 1
    13    7    8 1
    14    7   34 1
    15    7   35 1
    16    8    9 1
    17    8   36 1
    18    8   37 1
    19    9   10 1
    20    9   12 1
    21   10   11 1
    22   10   38 1
    23   10   39 1
    24   11   40 1
    25   11   41 1
    26   12   13 1
    27   12   14 1
    28   12   15 1
    29   14   42 1
    30   14   43 1
    31   14   44 1
    32   15   16 2
    33   15   17 am
    34   17   18 1
    35   17   45 1
    36   18   22 1
    37   18   19 2
    38   19   20 1
    39   19   26 1
    40   20   25 1
    41   20   21 2
    42   21   22 1
    43   21   23 1
    44   23   24 1
    45   23   46 1
    46   23   47 1
    47   24   25 1
    48   24   48 1
    49   24   49 1
    50   25   50 1
    51   25   51 1
    52   26   27 2
    53   26   28 am
    54   28   52 1
    55   28   53 1
@<TRIPOS>MOLECULE
ZINC35375551
   56    59     0     0     0
SMALL
USER_CHARGES

@<TRIPOS>ATOM
      1 C1         -0.0184    1.5028    0.0103 C.3       1 <0>        -0.1183
      2 C2          0.0021   -0.0041    0.0020 C.ar      1 <0>        -0.0907
      3 C3          0.0058   -0.6906   -1.1986 C.ar      1 <0>        -0.0773
      4 C4          0.0240   -2.0697   -1.2119 C.ar      1 <0>        -0.0919
      5 C5          0.0400   -2.7821   -0.0150 C.ar      1 <0>         0.1534
      6 C6          0.0375   -2.0807    1.1872 C.ar      1 <0>        -0.1238
      7 C7          0.0229   -0.7038    1.1954 C.ar      1 <0>        -0.0640
      8 C8          0.0613   -3.1218    2.2699 C.3       1 <0>         0.1279
      9 C9         -1.1558   -3.0048    3.1944 C.3       1 <0>        -0.1440
     10 H1         -1.5786   -3.9756    3.4528 H         1 <0>         0.1445
     11 C10        -0.6338   -2.2274    4.4349 C.3       1 <0>        -0.1447
     12 H2         -0.7734   -2.7741    5.3675 H         1 <0>         0.1463
     13 C11         0.8523   -1.9448    4.1271 C.3       1 <0>         0.0545
     14 H3          0.9667   -0.9547    3.6860 H         1 <0>         0.1026
     15 N1          1.2450   -2.9732    3.1370 N.3       1 <0>        -0.6080
     16 C12         1.6911   -2.0590    5.4016 C.3       1 <0>         0.1081
     17 H4          1.5978   -3.0656    5.8090 H         1 <0>         0.1053
     18 C13         3.1584   -1.7754    5.0736 C.3       1 <0>        -0.1819
     19 O1          1.2263   -1.1106    6.3642 O.3       1 <0>        -0.5469
     20 C14        -1.4187   -0.9357    4.3917 C.2       1 <0>         0.5381
     21 O2         -1.3215   -0.0300    5.1917 O.2       1 <0>        -0.4593
     22 N2         -2.2368   -0.9476    3.3331 N.am      1 <0>        -0.5719
     23 C15        -2.1765   -2.0717    2.5839 C.2       1 <0>         0.5466
     24 O3         -2.8261   -2.3004    1.5862 O.2       1 <0>        -0.4525
     25 C16        -3.1338    0.1655    3.0126 C.3       1 <0>         0.1004
     26 C17        -2.4121    1.1540    2.0945 C.3       1 <0>        -0.1436
     27 C18        -3.3489    2.3164    1.7597 C.3       1 <0>         0.0660
     28 O4         -2.6748    3.2397    0.9022 O.3       1 <0>        -0.3869
     29 C19        -3.4661    4.3690    0.5275 C.3       1 <0>         0.0315
     30 C20         0.0750   -4.4401    1.5448 C.2       1 <0>         0.5475
     31 O5          0.0951   -5.5433    2.0483 O.2       1 <0>        -0.4846
     32 N3          0.0600   -4.1572    0.2280 N.am      1 <0>        -0.6484
     33 C21         0.0260   -2.8082   -2.5256 C.3       1 <0>        -0.1158
     34 H5          1.0042    1.8801    0.0026 H         1 <0>         0.0693
     35 H6         -0.5455    1.8639   -0.8728 H         1 <0>         0.0708
     36 H7         -0.5286    1.8543    0.9071 H         1 <0>         0.0786
     37 H8         -0.0059   -0.1442   -2.1301 H         1 <0>         0.1341
     38 H9          0.0240   -0.1697    2.1341 H         1 <0>         0.1169
     39 H10         1.4650   -3.8419    3.6006 H         1 <0>         0.3561
     40 H11         3.2516   -0.7688    4.6662 H         1 <0>         0.0606
     41 H12         3.7559   -1.8567    5.9816 H         1 <0>         0.0677
     42 H13         3.5129   -2.4988    4.3394 H         1 <0>         0.0760
     43 H14         1.2801   -0.1915    6.0685 H         1 <0>         0.3801
     44 H15        -4.0215   -0.2168    2.5086 H         1 <0>         0.0970
     45 H16        -3.4277    0.6717    3.9321 H         1 <0>         0.0989
     46 H17        -1.5244    1.5363    2.5984 H         1 <0>         0.0786
     47 H18        -2.1182    0.6478    1.1750 H         1 <0>         0.0893
     48 H19        -4.2366    1.9341    1.2558 H         1 <0>         0.0529
     49 H20        -3.6427    2.8226    2.6792 H         1 <0>         0.0531
     50 H21        -3.7624    4.9178    1.4214 H         1 <0>         0.0421
     51 H22        -2.8833    5.0213   -0.1228 H         1 <0>         0.0878
     52 H23        -4.3563    4.0293   -0.0020 H         1 <0>         0.0419
     53 H24         0.0627   -4.8304   -0.4704 H         1 <0>         0.4185
     54 H25         1.0541   -2.9726   -2.8484 H         1 <0>         0.0744
     55 H26        -0.4744   -3.7687   -2.4032 H         1 <0>         0.0621
     56 H27        -0.5001   -2.2173   -3.2754 H         1 <0>         0.0748
@<TRIPOS>BOND
     1    1    2 1
     2    1   34 1
     3    1   35 1
     4    1   36 1
     5    2    7 ar
     6    2    3 ar
     7    3    4 ar
     8    3   37 1
     9    4    5 ar
    10    4   33 1
    11    5   32 1
    12    5    6 ar
    13    6    7 ar
    14    6    8 1
    15    7   38 1
    16    8   15 1
    17    8    9 1
    18    8   30 1
    19    9   10 1
    20    9   23 1
    21    9   11 1
    22   11   12 1
    23   11   13 1
    24   11   20 1
    25   13   14 1
    26   13   15 1
    27   13   16 1
    28   15   39 1
    29   16   17 1
    30   16   18 1
    31   16   19 1
    32   18   40 1
    33   18   41 1
    34   18   42 1
    35   19   43 1
    36   20   21 2
    37   20   22 am
    38   22   23 am
    39   22   25 1
    40   23   24 2
    41   25   26 1
    42   25   44 1
    43   25   45 1
    44   26   27 1
    45   26   46 1
    46   26   47 1
    47   27   28 1
    48   27   48 1
    49   27   49 1
    50   28   29 1
    51   29   50 1
    52   29   51 1
    53   29   52 1
    54   30   31 2
    55   30   32 am
    56   32   53 1
    57   33   54 1
    58   33   55 1
    59   33   56 1
@<TRIPOS>MOLECULE
ZINC62725329
   51    53     0     0     0
SMALL
USER_CHARGES

@<TRIPOS>ATOM
      1 C1         -0.8198    1.4979   -1.0871 C.3       1 <0>        -0.1705
      2 C2         -0.7994   -0.0089   -1.0953 C.2       1 <0>         0.5212
      3 O1         -0.4622   -0.6053   -2.0961 O.2       1 <0>        -0.5438
      4 N1         -1.1558   -0.6938    0.0094 N.am      1 <0>        -0.6931
      5 C3         -1.1360   -2.1586    0.0013 C.3       1 <0>         0.1375
      6 H1         -0.3504   -2.5086   -0.6685 H         1 <0>         0.1169
      7 C4         -2.4912   -2.6863   -0.4794 C.3       1 <0>         0.0856
      8 H2         -2.4607   -3.7745   -0.5329 H         1 <0>         0.1072
      9 C5         -3.5762   -2.2522    0.5109 C.3       1 <0>         0.0642
     10 H3         -4.5357   -2.6700    0.2062 H         1 <0>         0.0800
     11 C6         -3.2156   -2.7644    1.9078 C.3       1 <0>         0.0697
     12 H4         -3.1914   -3.8541    1.9004 H         1 <0>         0.0829
     13 O2         -1.9310   -2.2617    2.2811 O.3       1 <0>        -0.3696
     14 C7         -0.8680   -2.6744    1.4176 C.3       1 <0>         0.2538
     15 H5         -0.8132   -3.7629    1.4037 H         1 <0>         0.0816
     16 O3          0.3694   -2.1407    1.8930 O.3       1 <0>        -0.2811
     17 C8          0.8617   -2.6596    3.0484 C.ar      1 <0>         0.1283
     18 C9          0.1571   -3.6737    3.7048 C.ar      1 <0>        -0.1704
     19 C10         0.6243   -4.2129    4.8625 C.ar      1 <0>        -0.0659
     20 C11         1.8325   -3.7477    5.4106 C.ar      1 <0>        -0.0787
     21 C12         2.3443   -4.2828    6.6049 C.ar      1 <0>        -0.0955
     22 C13         3.5172   -3.8091    7.1072 C.ar      1 <0>        -0.1266
     23 C14         4.2215   -2.7988    6.4547 C.ar      1 <0>        -0.1061
     24 C15         3.7566   -2.2566    5.2963 C.ar      1 <0>        -0.1137
     25 C16         2.5486   -2.7202    4.7469 C.ar      1 <0>        -0.0166
     26 C17         2.0410   -2.1879    3.5503 C.ar      1 <0>        -0.1457
     27 C18        -4.2637   -2.2842    2.9137 C.3       1 <0>         0.0841
     28 O4         -3.9925   -2.8571    4.1944 O.3       1 <0>        -0.5598
     29 O5         -3.6612   -0.8259    0.5312 O.3       1 <0>        -0.5337
     30 O6         -2.7807   -2.1521   -1.7728 O.3       1 <0>        -0.3085
     31 C19        -3.5299   -2.9081   -2.5907 C.2       1 <0>         0.4598
     32 O7         -3.9266   -3.9878   -2.2207 O.2       1 <0>        -0.5178
     33 C20        -3.8760   -2.4104   -3.9704 C.3       1 <0>        -0.1459
     34 H6         -0.5029    1.8710   -2.0610 H         1 <0>         0.0897
     35 H7         -1.8308    1.8464   -0.8759 H         1 <0>         0.0875
     36 H8         -0.1406    1.8663   -0.3183 H         1 <0>         0.0847
     37 H9         -1.4255   -0.2168    0.8098 H         1 <0>         0.4101
     38 H10        -0.7713   -4.0335    3.2866 H         1 <0>         0.1298
     39 H11         0.0692   -4.9950    5.3591 H         1 <0>         0.1319
     40 H12         1.8095   -5.0659    7.1218 H         1 <0>         0.1268
     41 H13         3.9079   -4.2221    8.0255 H         1 <0>         0.1233
     42 H14         5.1496   -2.4405    6.8749 H         1 <0>         0.1241
     43 H15         4.3128   -1.4739    4.8018 H         1 <0>         0.1281
     44 H16         2.5784   -1.4075    3.0320 H         1 <0>         0.1352
     45 H17        -4.2261   -1.1973    2.9866 H         1 <0>         0.0616
     46 H18        -5.2549   -2.5919    2.5805 H         1 <0>         0.0674
     47 H19        -4.6190   -2.5955    4.8829 H         1 <0>         0.3862
     48 H20        -4.3299   -0.4803    1.1383 H         1 <0>         0.3761
     49 H21        -2.9597   -2.2395   -4.5354 H         1 <0>         0.1043
     50 H22        -4.4854   -3.1548   -4.4829 H         1 <0>         0.1024
     51 H23        -4.4332   -1.4770   -3.8907 H         1 <0>         0.1008
@<TRIPOS>BOND
     1    1    2 1
     2    1   34 1
     3    1   35 1
     4    1   36 1
     5    2    3 2
     6    2    4 am
     7    4    5 1
     8    4   37 1
     9    5    6 1
    10    5   14 1
    11    5    7 1
    12    7    8 1
    13    7    9 1
    14    7   30 1
    15    9   10 1
    16    9   11 1
    17    9   29 1
    18   11   12 1
    19   11   13 1
    20   11   27 1
    21   13   14 1
    22   14   15 1
    23   14   16 1
    24   16   17 1
    25   17   26 ar
    26   17   18 ar
    27   18   19 ar
    28   18   38 1
    29   19   20 ar
    30   19   39 1
    31   20   25 ar
    32   20   21 ar
    33   21   22 ar
    34   21   40 1
    35   22   23 ar
    36   22   41 1
    37   23   24 ar
    38   23   42 1
    39   24   25 ar
    40   24   43 1
    41   25   26 ar
    42   26   44 1
    43   27   28 1
    44   27   45 1
    45   27   46 1
    46   28   47 1
    47   29   48 1
    48   30   31 1
    49   31   32 2
    50   31   33 1
    51   33   49 1
    52   33   50 1
    53   33   51 1
@<TRIPOS>MOLECULE
ZINC67196323
   44    46     0     0     0
SMALL
USER_CHARGES

@<TRIPOS>ATOM
      1 C1         -0.2981    1.4933    0.8008 C.3       1 <0>        -0.1128
      2 C2         -0.1368    0.0228    0.5135 C.2       1 <0>         0.2386
      3 C3         -1.2341   -0.7247    0.0679 C.2       1 <0>        -0.2229
      4 C4         -1.0748   -2.0487   -0.1878 C.2       1 <0>         0.2046
      5 N1          0.1483   -2.6136   -0.0037 N.pl3     1 <0>        -0.3253
      6 C5          1.1987   -1.8559    0.4323 C.2       1 <0>         0.4577
      7 N2          1.0336   -0.5506    0.6770 N.2       1 <0>        -0.4622
      8 N3          2.2529   -2.6591    0.5203 N.2       1 <0>        -0.5141
      9 C6          1.9113   -3.8884    0.1587 C.2       1 <0>         0.2846
     10 N4          0.6414   -3.9144   -0.1694 N.2       1 <0>        -0.3177
     11 C7          2.8403   -5.0746    0.1288 C.3       1 <0>        -0.0365
     12 C8          2.8085   -5.7714    1.4646 C.2       1 <0>         0.5307
     13 O1          2.1010   -5.3467    2.3534 O.2       1 <0>        -0.5019
     14 N5          3.5662   -6.8667    1.6716 N.am      1 <0>        -0.5498
     15 N6          3.5365   -7.5145    2.9134 N.pl3     1 <0>        -0.4608
     16 C9          4.2942   -8.6097    3.1204 C.2       1 <0>         0.5549
     17 S1          4.2580   -9.4014    4.6380 S.2       1 <0>        -0.5596
     18 N7          5.0804   -9.0817    2.1327 N.pl3     1 <0>        -0.6302
     19 C10         5.9339  -10.1637    2.3745 C.ar      1 <0>         0.1172
     20 C11         5.4631  -11.2824    3.0518 C.ar      1 <0>        -0.0579
     21 C12         6.3021  -12.3538    3.2926 C.ar      1 <0>        -0.1103
     22 C13         7.6133  -12.3199    2.8622 C.ar      1 <0>        -0.0827
     23 C14         8.0954  -11.2012    2.1814 C.ar      1 <0>         0.0135
     24 C15         7.2474  -10.1223    1.9337 C.ar      1 <0>        -0.0954
     25 C16         9.4553  -11.1634    1.7342 C.1       1 <0>        -0.1539
     26 C17        10.5702  -11.1324    1.3676 C.1       1 <0>        -0.1683
     27 C18        -2.2365   -2.8798   -0.6680 C.3       1 <0>        -0.1200
     28 H1          0.6556    1.9059    1.1300 H         1 <0>         0.0902
     29 H2         -0.6232    2.0068   -0.1040 H         1 <0>         0.0963
     30 H3         -1.0433    1.6308    1.5843 H         1 <0>         0.0965
     31 H4         -2.1959   -0.2535   -0.0705 H         1 <0>         0.1762
     32 H5          2.5206   -5.7670   -0.6499 H         1 <0>         0.1357
     33 H6          3.8551   -4.7361   -0.0803 H         1 <0>         0.1401
     34 H7          4.1320   -7.2064    0.9607 H         1 <0>         0.4227
     35 H8          2.9707   -7.1748    3.6243 H         1 <0>         0.4620
     36 H9          5.0546   -8.6713    1.2542 H         1 <0>         0.4018
     37 H10         4.4383  -11.3144    3.3912 H         1 <0>         0.1519
     38 H11         5.9309  -13.2203    3.8197 H         1 <0>         0.1370
     39 H12         8.2660  -13.1590    3.0526 H         1 <0>         0.1310
     40 H13         7.6140   -9.2556    1.4037 H         1 <0>         0.1288
     41 H14        11.5673  -11.1047    1.0398 H         1 <0>         0.2252
     42 H15        -3.1230   -2.2511   -0.7520 H         1 <0>         0.0989
     43 H16        -1.9998   -3.3063   -1.6427 H         1 <0>         0.0930
     44 H17        -2.4271   -3.6833    0.0436 H         1 <0>         0.0932
@<TRIPOS>BOND
     1    1    2 1
     2    1   28 1
     3    1   29 1
     4    1   30 1
     5    2    7 2
     6    2    3 1
     7    3    4 2
     8    3   31 1
     9    4    5 1
    10    4   27 1
    11    5   10 1
    12    5    6 1
    13    6    7 1
    14    6    8 2
    15    8    9 1
    16    9   10 2
    17    9   11 1
    18   11   12 1
    19   11   32 1
    20   11   33 1
    21   12   13 2
    22   12   14 am
    23   14   15 1
    24   14   34 1
    25   15   16 1
    26   15   35 1
    27   16   17 2
    28   16   18 1
    29   18   19 1
    30   18   36 1
    31   19   24 ar
    32   19   20 ar
    33   20   21 ar
    34   20   37 1
    35   21   22 ar
    36   21   38 1
    37   22   23 ar
    38   22   39 1
    39   23   24 ar
    40   23   25 1
    41   24   40 1
    42   25   26 3
    43   26   41 1
    44   27   42 1
    45   27   43 1
    46   27   44 1
@<TRIPOS>MOLECULE
ZINC13445524
   47    49     0     0     0
SMALL
USER_CHARGES
4-[4-[(E)-3-(5-methyl-2-furyl)prop-2-enoyl]piperazin-1-yl]sulfonylbenzoic acid
@<TRIPOS>ATOM
      1 C1         -7.8611   -1.2934   -6.3234 C.3       1 <0>        -0.0802
      2 C2         -7.3023    0.0999   -6.4557 C.2       1 <0>         0.0115
      3 C3         -7.5942    0.9715   -7.4465 C.2       1 <0>        -0.2191
      4 C4         -6.8720    2.1472   -7.1912 C.2       1 <0>        -0.1550
      5 C5         -6.1530    1.9230   -6.0354 C.2       1 <0>        -0.0163
      6 O1         -6.4362    0.6743   -5.6094 O.3       1 <0>        -0.1634
      7 C6         -5.2786    2.8414   -5.4052 C.2       1 <0>         0.0166
      8 C7         -4.6356    2.4914   -4.2636 C.2       1 <0>        -0.2154
      9 C8         -3.7615    3.4095   -3.6337 C.2       1 <0>         0.5540
     10 O2         -3.6581    4.5444   -4.0629 O.2       1 <0>        -0.5475
     11 N1         -3.0437    3.0276   -2.5588 N.am      1 <0>        -0.6035
     12 C9         -2.0502    3.9319   -1.9631 C.3       1 <0>         0.0945
     13 C10        -0.6973    3.2110   -1.9158 C.3       1 <0>         0.1082
     14 N2         -0.8938    1.8825   -1.3187 N.pl3     1 <0>        -0.9996
     15 C11        -1.8833    0.9760   -1.9178 C.3       1 <0>         0.1070
     16 C12        -3.2401    1.6991   -1.9617 C.3       1 <0>         0.0850
     17 S1         -0.0110    1.4129    0.0013 S.o2      1 <0>         2.6938
     18 O3          0.0069   -0.0080   -0.0067 O.2       1 <0>        -0.9591
     19 O4          1.1787    2.1898   -0.0084 O.2       1 <0>        -0.9578
     20 C13        -0.9170    1.8969    1.4329 C.ar      1 <0>        -0.6847
     21 C14        -0.7023    3.1429    1.9951 C.ar      1 <0>        -0.0392
     22 C15        -1.4116    3.5302    3.1130 C.ar      1 <0>        -0.0988
     23 C16        -2.3402    2.6574    3.6836 C.ar      1 <0>        -0.0519
     24 C17        -2.5480    1.3995    3.1143 C.ar      1 <0>        -0.1083
     25 C18        -1.8357    1.0271    1.9933 C.ar      1 <0>        -0.0391
     26 C19        -3.0998    3.0632    4.8839 C.2       1 <0>         0.4823
     27 O5         -3.9073    2.3020    5.3778 O.co2     1 <0>        -0.6211
     28 H1         -7.4516   -1.7659   -5.4306 H         1 <0>         0.0793
     29 H2         -8.9469   -1.2432   -6.2424 H         1 <0>         0.0893
     30 H3         -7.5890   -1.8788   -7.2017 H         1 <0>         0.0891
     31 H4         -8.2621    0.7973   -8.2771 H         1 <0>         0.1533
     32 H5         -6.8765    3.0497   -7.7843 H         1 <0>         0.1570
     33 H6         -5.1238    3.8206   -5.8338 H         1 <0>         0.1605
     34 H7         -4.7904    1.5122   -3.8350 H         1 <0>         0.1347
     35 H8         -2.3581    4.1987   -0.9520 H         1 <0>         0.0793
     36 H9         -1.9638    4.8323   -2.5714 H         1 <0>         0.1068
     37 H10         0.0022    3.7852   -1.3083 H         1 <0>         0.1055
     38 H11        -0.3018    3.1033   -2.9258 H         1 <0>         0.0797
     39 H12        -1.5732    0.7128   -2.9291 H         1 <0>         0.0808
     40 H13        -1.9672    0.0740   -1.3118 H         1 <0>         0.1059
     41 H14        -3.6328    1.8069   -0.9506 H         1 <0>         0.0835
     42 H15        -3.9420    1.1259   -2.5675 H         1 <0>         0.1008
     43 H16         0.0192    3.8154    1.5551 H         1 <0>         0.1335
     44 H17        -1.2464    4.5047    3.5481 H         1 <0>         0.1410
     45 H18        -3.2650    0.7198    3.5505 H         1 <0>         0.1370
     46 H19        -1.9957    0.0546    1.5517 H         1 <0>         0.1328
     47 O6         -2.8969    4.2776    5.4307 O.co2     1 <0>        -0.7427
@<TRIPOS>BOND
     1    1    2 1
     2    1   28 1
     3    1   29 1
     4    1   30 1
     5    2    6 1
     6    2    3 2
     7    3    4 1
     8    3   31 1
     9    4    5 2
    10    4   32 1
    11    5    6 1
    12    5    7 1
    13    7    8 2
    14    7   33 1
    15    8    9 1
    16    8   34 1
    17    9   10 2
    18    9   11 am
    19   11   16 1
    20   11   12 1
    21   12   13 1
    22   12   35 1
    23   12   36 1
    24   13   14 1
    25   13   37 1
    26   13   38 1
    27   14   15 1
    28   14   17 1
    29   15   16 1
    30   15   39 1
    31   15   40 1
    32   16   41 1
    33   16   42 1
    34   17   18 2
    35   17   19 2
    36   17   20 1
    37   20   25 ar
    38   20   21 ar
    39   21   22 ar
    40   21   43 1
    41   22   23 ar
    42   22   44 1
    43   23   24 ar
    44   23   26 1
    45   24   25 ar
    46   24   45 1
    47   25   46 1
    48   26   27 2
    49   26   47 1
@<TRIPOS>MOLECULE
ZINC32918202
   44    47     0     0     0
SMALL
USER_CHARGES
1-[[5-(5-cyclopropyl-1,2,4-oxadiazol-3-yl)-2-methyl-3-thienyl]sulfonyl]piperidine-4-carboxylic acid
@<TRIPOS>ATOM
      1 C1         -0.0184    1.5028    0.0103 C.3       1 <0>        -0.1231
      2 C2          0.0021   -0.0041    0.0020 C.2       1 <0>        -0.0096
      3 C3          0.0237   -0.8639    1.0539 C.2       1 <0>        -0.7216
      4 C4          0.0399   -2.2188    0.8123 C.2       1 <0>        -0.0307
      5 C5          0.0336   -2.6567   -0.4857 C.2       1 <0>        -0.1243
      6 S1         -0.0038   -1.1190   -1.3922 S.3       1 <0>         0.1661
      7 C6          0.0476   -4.0411   -1.0011 C.2       1 <0>         0.2586
      8 N1          0.0349   -4.4151   -2.3023 N.2       1 <0>        -0.4798
      9 C7          0.0573   -5.7242   -2.2920 C.2       1 <0>         0.1904
     10 O1          0.0747   -6.1091   -1.0119 O.3       1 <0>         0.0803
     11 N2          0.0689   -5.1383   -0.2850 N.2       1 <0>        -0.3642
     12 C8          0.0581   -6.6281   -3.4979 C.3       1 <0>        -0.1623
     13 C9         -0.1234   -8.1280   -3.2565 C.3       1 <0>        -0.1045
     14 C10         1.2445   -7.5792   -3.6670 C.3       1 <0>        -0.0999
     15 S2          0.0316   -0.2522    2.7063 S.o2      1 <0>         2.6993
     16 O2         -1.0061    0.7152    2.7861 O.2       1 <0>        -0.9508
     17 O3          0.0821   -1.3875    3.5594 O.2       1 <0>        -0.9525
     18 N3          1.4568    0.5638    2.9195 N.pl3     1 <0>        -0.9897
     19 C11         2.6518   -0.1333    3.4141 C.3       1 <0>         0.1186
     20 C12         3.1945    0.6124    4.6319 C.3       1 <0>        -0.1079
     21 C13         3.4287    2.0799    4.2660 C.3       1 <0>        -0.1270
     22 C14         2.1022    2.7230    3.8553 C.3       1 <0>        -0.1070
     23 C15         1.5486    2.0000    2.6234 C.3       1 <0>         0.1085
     24 C16         3.9932    2.8103    5.4572 C.2       1 <0>         0.4641
     25 O4          3.3961    3.7487    5.9290 O.co2     1 <0>        -0.6396
     26 O5          5.1595    2.4184    5.9939 O.co2     1 <0>        -0.7715
     27 H1         -0.0076    1.8639    1.0493 H         1 <0>         0.1054
     28 H2         -0.9293    1.8599   -0.4925 H         1 <0>         0.1051
     29 H3          0.8667    1.8844   -0.5198 H         1 <0>         0.1040
     30 H4          0.0576   -2.9234    1.6306 H         1 <0>         0.1579
     31 H5         -0.4341   -5.8697   -4.1245 H         1 <0>         0.1579
     32 H6         -0.4526   -8.2954   -2.2204 H         1 <0>         0.1134
     33 H7         -0.8808   -8.5220   -3.9501 H         1 <0>         0.1210
     34 H8          1.6179   -7.5195   -4.7000 H         1 <0>         0.1217
     35 H9          2.0461   -7.2930   -2.9702 H         1 <0>         0.1081
     36 H10         2.3850   -1.1621    3.6977 H         1 <0>         0.0895
     37 H11         3.4159   -0.1575    2.6232 H         1 <0>         0.0686
     38 H12         2.4665    0.5503    5.4542 H         1 <0>         0.0626
     39 H13         4.1443    0.1563    4.9479 H         1 <0>         0.0848
     40 H14         4.1488    2.1479    3.4373 H         1 <0>         0.0706
     41 H15         1.3833    2.6417    4.6839 H         1 <0>         0.0694
     42 H16         2.2675    3.7839    3.6161 H         1 <0>         0.0776
     43 H17         2.2205    2.1555    1.7664 H         1 <0>         0.0697
     44 H18         0.5487    2.3890    2.3806 H         1 <0>         0.0927
@<TRIPOS>BOND
     1    1    2 1
     2    1   27 1
     3    1   28 1
     4    1   29 1
     5    2    6 1
     6    2    3 2
     7    3    4 1
     8    3   15 1
     9    4    5 2
    10    4   30 1
    11    5    6 1
    12    5    7 1
    13    7   11 2
    14    7    8 1
    15    8    9 2
    16    9   10 1
    17    9   12 1
    18   10   11 1
    19   12   14 1
    20   12   13 1
    21   12   31 1
    22   13   14 1
    23   13   32 1
    24   13   33 1
    25   14   34 1
    26   14   35 1
    27   15   16 2
    28   15   17 2
    29   15   18 1
    30   18   23 1
    31   18   19 1
    32   19   20 1
    33   19   36 1
    34   19   37 1
    35   20   21 1
    36   20   38 1
    37   20   39 1
    38   21   22 1
    39   21   24 1
    40   21   40 1
    41   22   23 1
    42   22   41 1
    43   22   42 1
    44   23   43 1
    45   23   44 1
    46   24   25 2
    47   24   26 1
@<TRIPOS>MOLECULE
ZINC06132638
   43    46     0     0     0
SMALL
USER_CHARGES

@<TRIPOS>ATOM
      1 C1         -0.0173    1.4248    0.0099 C.3       1 <0>         0.0357
      2 O1          0.0021   -0.0041    0.0020 O.3       1 <0>        -0.3310
      3 C2          0.6062   -0.6076   -1.0565 C.ar      1 <0>         0.0126
      4 C3          1.1728    0.1615   -2.0621 C.ar      1 <0>        -0.1563
      5 C4          1.7865   -0.4505   -3.1374 C.ar      1 <0>        -0.1489
      6 C5          1.8363   -1.8362   -3.2115 C.ar      1 <0>         0.2524
      7 C6          1.2688   -2.6054   -2.2043 C.ar      1 <0>        -0.2300
      8 C7          0.6605   -1.9917   -1.1269 C.ar      1 <0>        -0.0896
      9 N1          2.4575   -2.4571   -4.3009 N.2       1 <0>        -1.0885
     10 S1          2.5166   -4.1098   -4.3889 S.o2      1 <0>         2.6018
     11 O2          3.3434   -4.5441   -3.3179 O.2       1 <0>        -1.0255
     12 O3          1.1768   -4.5562   -4.5465 O.2       1 <0>        -1.0256
     13 C8          3.3634   -4.5223   -5.8780 C.ar      1 <0>        -0.6138
     14 C9          2.6487   -4.6839   -7.0549 C.ar      1 <0>         0.0038
     15 C10         3.2983   -5.0075   -8.2292 C.ar      1 <0>        -0.1176
     16 C11         4.6737   -5.1721   -8.2348 C.ar      1 <0>         0.0547
     17 C12         5.4009   -5.0091   -7.0462 C.ar      1 <0>        -0.0001
     18 C13         4.7324   -4.6768   -5.8670 C.ar      1 <0>         0.0508
     19 N2          6.7080   -5.2296   -7.3551 N.2       1 <0>        -0.4332
     20 C14         6.7963   -5.5083   -8.6315 C.2       1 <0>         0.1865
     21 O4          5.5753   -5.4812   -9.1952 O.3       1 <0>        -0.1969
     22 S2          8.2953   -5.8662   -9.4857 S.3       1 <0>         0.1238
     23 C15         7.7662   -6.1623  -11.1954 C.3       1 <0>        -0.1834
     24 H1          6.9931   -6.9301  -11.2277 H         1 <0>         0.1458
     25 C16         8.9750   -6.5705  -12.0756 C.3       1 <0>        -0.1288
     26 C17         8.6857   -5.7505  -13.3618 C.3       1 <0>         0.0538
     27 O5          8.0936   -4.5416  -12.8411 O.3       1 <0>        -0.3336
     28 C18         7.2664   -4.8774  -11.8277 C.2       1 <0>         0.4858
     29 O6          6.2890   -4.2577  -11.4804 O.2       1 <0>        -0.4122
     30 H2          1.0053    1.8021    0.0021 H         1 <0>         0.0453
     31 H3         -0.5445    1.7859   -0.8732 H         1 <0>         0.0453
     32 H4         -0.5275    1.7763    0.9067 H         1 <0>         0.0849
     33 H5          1.1336    1.2393   -2.0045 H         1 <0>         0.1116
     34 H6          2.2273    0.1485   -3.9206 H         1 <0>         0.1158
     35 H7          1.3071   -3.6832   -2.2612 H         1 <0>         0.1043
     36 H8          0.2233   -2.5898   -0.3410 H         1 <0>         0.1117
     37 H9          1.5763   -4.5561   -7.0530 H         1 <0>         0.1577
     38 H10         2.7349   -5.1325   -9.1421 H         1 <0>         0.1413
     39 H11         5.2855   -4.5452   -4.9487 H         1 <0>         0.1539
     40 H12         9.9160   -6.2656  -11.6177 H         1 <0>         0.1043
     41 H13         8.9683   -7.6409  -12.2814 H         1 <0>         0.1161
     42 H14         9.6102   -5.5294  -13.8952 H         1 <0>         0.1250
     43 H15         7.9830   -6.2783  -14.0067 H         1 <0>         0.0903
@<TRIPOS>BOND
     1    1    2 1
     2    1   30 1
     3    1   31 1
     4    1   32 1
     5    2    3 1
     6    3    8 ar
     7    3    4 ar
     8    4    5 ar
     9    4   33 1
    10    5    6 ar
    11    5   34 1
    12    6    7 ar
    13    6    9 1
    14    7    8 ar
    15    7   35 1
    16    8   36 1
    17    9   10 1
    18   10   11 2
    19   10   12 2
    20   10   13 1
    21   13   18 ar
    22   13   14 ar
    23   14   15 ar
    24   14   37 1
    25   15   16 ar
    26   15   38 1
    27   16   21 1
    28   16   17 ar
    29   17   18 ar
    30   17   19 1
    31   18   39 1
    32   19   20 2
    33   20   21 1
    34   20   22 1
    35   22   23 1
    36   23   24 1
    37   23   28 1
    38   23   25 1
    39   25   26 1
    40   25   40 1
    41   25   41 1
    42   26   27 1
    43   26   42 1
    44   26   43 1
    45   27   28 1
    46   28   29 2
@<TRIPOS>MOLECULE
ZINC59250738
   46    48     0     0     0
SMALL
USER_CHARGES

@<TRIPOS>ATOM
      1 C1         -0.0184    1.5028    0.0103 C.3       1 <0>        -0.1025
      2 C2          0.0021   -0.0041    0.0020 C.2       1 <0>         0.1638
      3 C3          0.0080   -0.8179   -1.1355 C.2       1 <0>        -0.7735
      4 C4          0.0279   -2.1072   -0.7249 C.2       1 <0>         0.1997
      5 N1          0.0343   -2.1090    0.6245 N.pl3     1 <0>        -0.3760
      6 N2          0.0231   -0.7768    1.0576 N.2       1 <0>        -0.3116
      7 C5          0.0548   -3.2948    1.4847 C.3       1 <0>         0.0982
      8 C6          0.0401   -3.3230   -1.6152 C.3       1 <0>        -0.1295
      9 S1         -0.0085   -0.2626   -2.8076 S.o2      1 <0>         2.6858
     10 O1         -0.5486   -1.3241   -3.5827 O.2       1 <0>        -1.0125
     11 O2         -0.5776    1.0394   -2.7975 O.2       1 <0>        -1.0065
     12 N3          1.5687   -0.0862   -3.2805 N.2       1 <0>        -1.0607
     13 C7          1.8452    0.3178   -4.4864 C.2       1 <0>         0.5573
     14 O3          0.8444    0.5936   -5.3533 O.3       1 <0>        -0.7156
     15 C8          3.2523    0.4753   -4.9083 C.2       1 <0>        -0.1958
     16 C9          3.7035    0.9081   -6.1747 C.2       1 <0>         0.1239
     17 N4          5.0084    0.9174   -6.1593 N.2       1 <0>        -0.3107
     18 N5          5.4490    0.4967   -4.8993 N.pl3     1 <0>        -0.3416
     19 C10         4.3684    0.2329   -4.1375 C.2       1 <0>         0.1594
     20 C11         4.3792   -0.2421   -2.7074 C.3       1 <0>        -0.1010
     21 C12         6.7825    0.3759   -4.4972 C.ar      1 <0>         0.4214
     22 C13         7.7733    0.1766   -5.4507 C.ar      1 <0>        -0.1684
     23 C14         9.0897    0.0590   -5.0394 C.ar      1 <0>        -0.0014
     24 C15         9.3695    0.1453   -3.6826 C.ar      1 <0>        -0.2692
     25 C16         8.3340    0.3445   -2.7904 C.ar      1 <0>         0.1902
     26 N6          7.0897    0.4578   -3.2129 N.ar      1 <0>        -0.4963
     27 C17        10.7878    0.0226   -3.1882 C.3       1 <0>         0.5214
     28 F1         11.3795    1.2897   -3.1498 F         1 <0>        -0.1748
     29 F2         10.7875   -0.5311   -1.9034 F         1 <0>        -0.1746
     30 F3         11.5130   -0.8047   -4.0524 F         1 <0>        -0.1763
     31 H1          1.0042    1.8801    0.0026 H         1 <0>         0.0832
     32 H2         -0.5455    1.8639   -0.8728 H         1 <0>         0.1138
     33 H3         -0.5286    1.8543    0.9071 H         1 <0>         0.0712
     34 H4          1.0875   -3.5746    1.6932 H         1 <0>         0.0750
     35 H5         -0.4577   -3.0734    2.4209 H         1 <0>         0.0879
     36 H6         -0.4500   -4.1185    0.9800 H         1 <0>         0.0865
     37 H7          1.0706   -3.6020   -1.8350 H         1 <0>         0.0911
     38 H8         -0.4598   -4.1489   -1.1091 H         1 <0>         0.0717
     39 H9         -0.4816   -3.0976   -2.5453 H         1 <0>         0.1273
     40 H10         3.0775    1.1834   -7.0106 H         1 <0>         0.2024
     41 H11         4.3942   -1.3318   -2.6865 H         1 <0>         0.0717
     42 H12         5.2655    0.1432   -2.2033 H         1 <0>         0.0845
     43 H13         3.4858    0.1188   -2.1979 H         1 <0>         0.1205
     44 H14         7.5198    0.1139   -6.4987 H         1 <0>         0.1594
     45 H15         9.8811   -0.0967   -5.7577 H         1 <0>         0.1547
     46 H16         8.5464    0.4123   -1.7337 H         1 <0>         0.1766
@<TRIPOS>BOND
     1    1    2 1
     2    1   31 1
     3    1   32 1
     4    1   33 1
     5    2    6 2
     6    2    3 1
     7    3    4 2
     8    3    9 1
     9    4    5 1
    10    4    8 1
    11    5    6 1
    12    5    7 1
    13    7   34 1
    14    7   35 1
    15    7   36 1
    16    8   37 1
    17    8   38 1
    18    8   39 1
    19    9   10 2
    20    9   11 2
    21    9   12 1
    22   12   13 2
    23   13   14 1
    24   13   15 1
    25   15   19 2
    26   15   16 1
    27   16   17 2
    28   16   40 1
    29   17   18 1
    30   18   19 1
    31   18   21 1
    32   19   20 1
    33   20   41 1
    34   20   42 1
    35   20   43 1
    36   21   26 ar
    37   21   22 ar
    38   22   23 ar
    39   22   44 1
    40   23   24 ar
    41   23   45 1
    42   24   25 ar
    43   24   27 1
    44   25   26 ar
    45   25   46 1
    46   27   28 1
    47   27   29 1
    48   27   30 1
@<TRIPOS>MOLECULE
ZINC66254307
   38    41     0     0     0
SMALL
USER_CHARGES

@<TRIPOS>ATOM
      1 C1          0.5988    1.2551    0.0274 C.3       1 <0>         0.1060
      2 N1          0.3109   -0.1803   -0.0262 N.pl3     1 <0>        -0.4191
      3 C2         -0.0499   -0.8722   -1.1274 C.2       1 <0>         0.4738
      4 C3         -0.2253   -2.1965   -0.7402 C.2       1 <0>        -0.2857
      5 C4          0.0479   -2.2626    0.6448 C.2       1 <0>         0.1266
      6 N2          0.3693   -1.0672    1.0544 N.2       1 <0>        -0.3276
      7 C5         -0.6213   -3.3165   -1.6081 C.2       1 <0>         0.4270
      8 N3         -0.7901   -4.5675   -1.2306 N.2       1 <0>        -0.5880
      9 C6         -1.1489   -5.3140   -2.2768 C.2       1 <0>         0.2773
     10 N4         -1.2163   -4.5598   -3.3374 N.2       1 <0>        -0.3895
     11 O1         -0.8806   -3.2431   -2.9264 O.3       1 <0>        -0.0841
     12 C7         -1.4306   -6.7939   -2.2381 C.3       1 <0>        -0.0754
     13 C8         -1.6313   -7.5100   -3.5753 C.3       1 <0>        -0.1623
     14 C9         -2.8276   -7.2583   -2.6552 C.3       1 <0>        -0.1575
     15 N5         -0.2146   -0.3604   -2.4014 N.2       1 <0>        -1.0710
     16 S1          1.0126    0.4907   -3.1169 S.o2      1 <0>         2.6208
     17 O2          1.1787    1.6800   -2.3572 O.2       1 <0>        -1.0106
     18 O3          2.0733   -0.4299   -3.3326 O.2       1 <0>        -0.9941
     19 C10         0.4437    0.9857   -4.7094 C.ar      1 <0>        -0.7202
     20 C11         0.6459    0.1620   -5.8035 C.ar      1 <0>         0.2625
     21 C12         0.1990    0.5509   -7.0547 C.ar      1 <0>        -0.2300
     22 C13        -0.4505    1.7633   -7.2117 C.ar      1 <0>         0.2017
     23 C14        -0.6535    2.5866   -6.1174 C.ar      1 <0>        -0.2318
     24 C15        -0.2104    2.1957   -4.8655 C.ar      1 <0>         0.2583
     25 F1         -0.4126    2.9971   -3.7968 F         1 <0>        -0.0943
     26 F2         -0.8858    2.1433   -8.4328 F         1 <0>        -0.1192
     27 F3          1.2797   -1.0212   -5.6503 F         1 <0>        -0.0894
     28 H1          1.6321    1.4299   -0.2724 H         1 <0>         0.0745
     29 H2         -0.0707    1.7855   -0.6498 H         1 <0>         0.0970
     30 H3          0.4492    1.6180    1.0443 H         1 <0>         0.0738
     31 H4          0.0027   -3.1509    1.2574 H         1 <0>         0.1851
     32 H5         -0.9339   -7.3464   -1.4406 H         1 <0>         0.1335
     33 H6         -1.5596   -6.9107   -4.4829 H         1 <0>         0.1039
     34 H7         -1.2664   -8.5338   -3.6576 H         1 <0>         0.1038
     35 H8         -3.2497   -8.1164   -2.1323 H         1 <0>         0.1049
     36 H9         -3.5428   -6.4933   -2.9575 H         1 <0>         0.0973
     37 H10         0.3574   -0.0914   -7.9083 H         1 <0>         0.1614
     38 H11        -1.1599    3.5326   -6.2399 H         1 <0>         0.1605
@<TRIPOS>BOND
     1    1    2 1
     2    1   28 1
     3    1   29 1
     4    1   30 1
     5    2    6 1
     6    2    3 1
     7    3    4 2
     8    3   15 1
     9    4    5 1
    10    4    7 1
    11    5    6 2
    12    5   31 1
    13    7   11 1
    14    7    8 2
    15    8    9 1
    16    9   10 2
    17    9   12 1
    18   10   11 1
    19   12   14 1
    20   12   13 1
    21   12   32 1
    22   13   14 1
    23   13   33 1
    24   13   34 1
    25   14   35 1
    26   14   36 1
    27   15   16 1
    28   16   17 2
    29   16   18 2
    30   16   19 1
    31   19   24 ar
    32   19   20 ar
    33   20   21 ar
    34   20   27 1
    35   21   22 ar
    36   21   37 1
    37   22   23 ar
    38   22   26 1
    39   23   24 ar
    40   23   38 1
    41   24   25 1
@<TRIPOS>MOLECULE
ZINC09585867
   54    57     0     0     0
SMALL
USER_CHARGES
2-[4-(2-chlorophenyl)-4-methyl-2,5-dioxo-imidazolidin-1-yl]-N-(1,1-dioxothiolan-3-yl)-N-phenyl-acetamide
@<TRIPOS>ATOM
      1 C1          6.3297    2.4698    2.8708 C.3       1 <0>        -0.1568
      2 C2          5.5182    3.2855    1.8624 C.3       1 <0>         0.1735
      3 C3          4.3607    2.4683    1.3237 C.2       1 <0>         0.5364
      4 O1          4.4246    1.4301    0.7009 O.2       1 <0>        -0.4322
      5 N1          3.2458    3.1355    1.6817 N.am      1 <0>        -0.5634
      6 C4          3.5352    4.2516    2.3604 C.2       1 <0>         0.7117
      7 O2          2.6956    5.0209    2.7850 O.2       1 <0>        -0.5348
      8 N2          4.8592    4.4252    2.5234 N.am      1 <0>        -0.7143
      9 C5          1.8854    2.6961    1.3619 C.3       1 <0>         0.0968
     10 C6          1.3701    1.8116    2.4679 C.2       1 <0>         0.5066
     11 O3          2.1007    1.4980    3.3838 O.2       1 <0>        -0.4891
     12 N3          0.0974    1.3690    2.4392 N.am      1 <0>        -0.5366
     13 C7         -0.4203    0.6567    3.5267 C.ar      1 <0>         0.1476
     14 C8         -1.6730    0.0641    3.4375 C.ar      1 <0>        -0.1721
     15 C9         -2.1783   -0.6440    4.5102 C.ar      1 <0>        -0.0901
     16 C10        -1.4437   -0.7524    5.6767 C.ar      1 <0>        -0.1386
     17 C11        -0.1985   -0.1582    5.7709 C.ar      1 <0>        -0.0927
     18 C12         0.3152    0.5456    4.6994 C.ar      1 <0>        -0.1551
     19 C13        -0.7440    1.6338    1.2696 C.3       1 <0>         0.1307
     20 H1         -0.1920    2.2502    0.5601 H         1 <0>         0.1228
     21 C14        -2.0144    2.3785    1.7125 C.3       1 <0>        -0.1597
     22 C15        -3.0200    2.3680    0.5260 C.3       1 <0>        -0.5697
     23 S1         -2.7926    0.6477   -0.0935 S.o2      1 <0>         2.3690
     24 O4         -3.7439   -0.1998    0.5359 O.2       1 <0>        -0.9214
     25 O5         -2.7100    0.6742   -1.5118 O.2       1 <0>        -0.9253
     26 C16        -1.1255    0.2929    0.5976 C.3       1 <0>        -0.6202
     27 C17         6.3995    3.7625    0.7369 C.ar      1 <0>        -0.0968
     28 C18         6.5854    5.1167    0.5308 C.ar      1 <0>        -0.0890
     29 C19         7.3972    5.5544   -0.4988 C.ar      1 <0>        -0.1131
     30 C20         8.0161    4.6382   -1.3290 C.ar      1 <0>        -0.0948
     31 C21         7.8268    3.2843   -1.1272 C.ar      1 <0>        -0.1078
     32 C22         7.0181    2.8455   -0.0937 C.ar      1 <0>        -0.0212
     33 Cl1         6.7794    1.1448    0.1600 Cl        1 <0>        -0.0305
     34 H2          6.7341    1.5843    2.3803 H         1 <0>         0.0949
     35 H3          7.1485    3.0781    3.2551 H         1 <0>         0.0831
     36 H4          5.6848    2.1659    3.6953 H         1 <0>         0.0782
     37 H5          5.2952    5.1598    2.9831 H         1 <0>         0.4429
     38 H6          1.8943    2.1388    0.4253 H         1 <0>         0.1335
     39 H7          1.2369    3.5664    1.2607 H         1 <0>         0.1343
     40 H8         -2.2495    0.1527    2.5285 H         1 <0>         0.1231
     41 H9         -3.1502   -1.1097    4.4396 H         1 <0>         0.1317
     42 H10        -1.8431   -1.3025    6.5159 H         1 <0>         0.1250
     43 H11         0.3729   -0.2450    6.6832 H         1 <0>         0.1270
     44 H12         1.2880    1.0088    4.7733 H         1 <0>         0.1723
     45 H13        -1.7656    3.4067    1.9752 H         1 <0>         0.1148
     46 H14        -2.4550    1.8751    2.5731 H         1 <0>         0.1104
     47 H15        -4.0406    2.5304    0.8728 H         1 <0>         0.1516
     48 H16        -2.7429    3.1005   -0.2321 H         1 <0>         0.1475
     49 H17        -1.1752   -0.5087    1.3345 H         1 <0>         0.1581
     50 H18        -0.4230    0.0422   -0.1972 H         1 <0>         0.1552
     51 H19         6.0990    5.8329    1.1765 H         1 <0>         0.1342
     52 H20         7.5449    6.6124   -0.6573 H         1 <0>         0.1352
     53 H21         8.6473    4.9808   -2.1356 H         1 <0>         0.1373
     54 H22         8.3097    2.5688   -1.7763 H         1 <0>         0.1400
@<TRIPOS>BOND
     1    1    2 1
     2    1   34 1
     3    1   35 1
     4    1   36 1
     5    2    8 1
     6    2    3 1
     7    2   27 1
     8    3    4 2
     9    3    5 am
    10    5    6 am
    11    5    9 1
    12    6    7 2
    13    6    8 am
    14    8   37 1
    15    9   10 1
    16    9   38 1
    17    9   39 1
    18   10   11 2
    19   10   12 am
    20   12   13 1
    21   12   19 1
    22   13   18 ar
    23   13   14 ar
    24   14   15 ar
    25   14   40 1
    26   15   16 ar
    27   15   41 1
    28   16   17 ar
    29   16   42 1
    30   17   18 ar
    31   17   43 1
    32   18   44 1
    33   19   20 1
    34   19   26 1
    35   19   21 1
    36   21   22 1
    37   21   45 1
    38   21   46 1
    39   22   23 1
    40   22   47 1
    41   22   48 1
    42   23   24 2
    43   23   25 2
    44   23   26 1
    45   26   49 1
    46   26   50 1
    47   27   32 ar
    48   27   28 ar
    49   28   29 ar
    50   28   51 1
    51   29   30 ar
    52   29   52 1
    53   30   31 ar
    54   30   53 1
    55   31   32 ar
    56   31   54 1
    57   32   33 1
@<TRIPOS>MOLECULE
ZINC02790135
   37    39     0     0     0
SMALL
USER_CHARGES
5,7-bis(difluoromethyl)-N-[3-methylsulfanyl-5-(trifluoromethyl)-1,2,4-triazol-4-yl]pyrazolo[1,5-a]pyrimidine-2-carboxamide
@<TRIPOS>ATOM
      1 C1          3.4469    1.7464    3.5570 C.3       1 <0>        -0.1511
      2 S1          2.6553    3.1665    2.7615 S.3       1 <0>         0.0380
      3 C2          2.7572    2.6683    1.0745 C.2       1 <0>         0.2052
      4 N1          3.2815    1.5538    0.6200 N.2       1 <0>        -0.2680
      5 N2          3.1858    1.5170   -0.6611 N.2       1 <0>        -0.1907
      6 C3          2.6000    2.5961   -1.0971 C.2       1 <0>         0.0949
      7 N3          2.3006    3.3656   -0.0069 N.pl3     1 <0>        -0.2399
      8 N4          1.6612    4.6122   -0.0012 N.am      1 <0>        -0.5213
      9 C4          0.3328    4.6871    0.2135 C.2       1 <0>         0.6170
     10 O1         -0.2955    3.6845    0.4917 O.2       1 <0>        -0.4669
     11 C5         -0.3605    5.9893    0.1106 C.2       1 <0>         0.0779
     12 C6         -1.7297    6.2025    0.3029 C.2       1 <0>        -0.1573
     13 C7         -1.9729    7.5544    0.1198 C.2       1 <0>         0.2516
     14 N5         -3.0939    8.2877    0.1862 N.2       1 <0>        -0.3941
     15 C8         -3.0668    9.5792   -0.0391 C.2       1 <0>         0.1402
     16 C9         -1.8575   10.2175   -0.3551 C.2       1 <0>        -0.1394
     17 C10        -0.7179    9.4887   -0.4255 C.2       1 <0>         0.1171
     18 N6         -0.7720    8.1441   -0.1865 N.pl3     1 <0>        -0.2802
     19 N7          0.2099    7.1468   -0.1845 N.2       1 <0>        -0.2478
     20 C11         0.5925   10.1517   -0.7635 C.3       1 <0>         0.3201
     21 F1          1.4950    9.9645    0.2890 F         1 <0>        -0.1813
     22 F2          1.1142    9.5852   -1.9314 F         1 <0>        -0.1809
     23 C12        -4.3397   10.3817    0.0421 C.3       1 <0>         0.3276
     24 F3         -4.2080   11.3668    1.0267 F         1 <0>        -0.1835
     25 F4         -4.5883   10.9881   -1.1939 F         1 <0>        -0.1834
     26 C13         2.3018    2.9312   -2.5358 C.3       1 <0>         0.5726
     27 F5          2.4321    1.7797   -3.3195 F         1 <0>        -0.1406
     28 F6          0.9952    3.4204   -2.6395 F         1 <0>        -0.1610
     29 F7          3.2011    3.9046   -2.9840 F         1 <0>        -0.1575
     30 H1          3.4664    1.9000    4.6460 H         1 <0>         0.1217
     31 H2          4.4761    1.6432    3.1828 H         1 <0>         0.1010
     32 H3          2.8793    0.8330    3.3256 H         1 <0>         0.1011
     33 H4          2.2434    5.5297   -0.1720 H         1 <0>         0.4746
     34 H5         -2.4637    5.4502    0.5517 H         1 <0>         0.1886
     35 H6         -1.8357   11.2812   -0.5409 H         1 <0>         0.1887
     36 H7          0.5055   11.2350   -0.9337 H         1 <0>         0.1579
     37 H8         -5.2236    9.7784    0.2964 H         1 <0>         0.1491
@<TRIPOS>BOND
     1    1    2 1
     2    1   30 1
     3    1   31 1
     4    1   32 1
     5    2    3 1
     6    3    7 1
     7    3    4 2
     8    4    5 1
     9    5    6 2
    10    6    7 1
    11    6   26 1
    12    7    8 1
    13    8    9 am
    14    8   33 1
    15    9   10 2
    16    9   11 1
    17   11   19 2
    18   11   12 1
    19   12   13 2
    20   12   34 1
    21   13   18 1
    22   13   14 1
    23   14   15 2
    24   15   16 1
    25   15   23 1
    26   16   17 2
    27   16   35 1
    28   17   18 1
    29   17   20 1
    30   18   19 1
    31   20   21 1
    32   20   22 1
    33   20   36 1
    34   23   24 1
    35   23   25 1
    36   23   37 1
    37   26   27 1
    38   26   28 1
    39   26   29 1
@<TRIPOS>MOLECULE
ZINC35416517
   58    62     0     0     0
SMALL
USER_CHARGES

@<TRIPOS>ATOM
      1 C1         -1.0264    0.8058    0.2228 C.3       1 <0>        -0.0661
      2 C2         -0.9375   -0.6986    0.2096 C.2       1 <0>         0.1022
      3 C3         -0.7528   -1.4993   -0.9222 C.2       1 <0>        -0.2604
      4 C4         -0.7266   -2.7907   -0.5189 C.2       1 <0>         0.1009
      5 N1         -0.8889   -2.8066    0.8207 N.pl3     1 <0>        -0.3740
      6 N2         -1.0140   -1.4808    1.2556 N.2       1 <0>        -0.3014
      7 C5         -0.9228   -3.9993    1.6707 C.3       1 <0>         0.1005
      8 C6         -0.5485   -3.9953   -1.4066 C.3       1 <0>        -0.0969
      9 C7         -0.6093   -1.0103   -2.3405 C.3       1 <0>         0.1972
     10 N3          0.8115   -0.9344   -2.6894 N.am      1 <0>        -0.5964
     11 C8          1.4681   -2.0720   -3.3384 C.3       1 <0>         0.1532
     12 C9          1.1312   -2.0754   -4.8073 C.2       1 <0>        -0.2608
     13 C10         0.4629   -1.1080   -5.4723 C.2       1 <0>         0.0864
     14 N4          0.3644   -1.4833   -6.7658 N.pl3     1 <0>        -0.4671
     15 H1         -0.0667   -0.9791   -7.4735 H         1 <0>         0.4451
     16 N5          0.9934   -2.7267   -6.9082 N.2       1 <0>        -0.2709
     17 C11         1.4626   -3.0849   -5.7318 C.2       1 <0>         0.1296
     18 C12         2.2063   -4.3338   -5.4318 C.ar      1 <0>        -0.0185
     19 C13         3.2789   -4.3124   -4.5429 C.ar      1 <0>        -0.1012
     20 C14         3.9671   -5.4767   -4.2675 C.ar      1 <0>        -0.1171
     21 C15         3.5935   -6.6633   -4.8722 C.ar      1 <0>        -0.1095
     22 C16         2.5294   -6.6903   -5.7554 C.ar      1 <0>        -0.1184
     23 C17         1.8306   -5.5329   -6.0336 C.ar      1 <0>        -0.0890
     24 C18         1.5145    0.1818   -2.4135 C.2       1 <0>         0.5662
     25 O1          0.9767    1.1152   -1.8497 O.2       1 <0>        -0.5183
     26 C19         2.9375    0.2712   -2.7958 C.ar      1 <0>        -0.1271
     27 C20         3.4368   -0.5272   -3.8276 C.ar      1 <0>        -0.1117
     28 C21         4.7649   -0.4417   -4.1838 C.ar      1 <0>        -0.1107
     29 C22         5.6114    0.4363   -3.5199 C.ar      1 <0>         0.0606
     30 C23         5.1189    1.2361   -2.4879 C.ar      1 <0>         0.0232
     31 C24         3.7869    1.1589   -2.1305 C.ar      1 <0>        -0.0418
     32 O2          6.1410    2.0019   -2.0051 O.3       1 <0>        -0.3044
     33 C25         7.3475    1.3704   -2.4726 C.3       1 <0>         0.2117
     34 O3          6.9389    0.7031   -3.6810 O.3       1 <0>        -0.3047
     35 H2         -0.0435    1.2260    0.4355 H         1 <0>         0.0808
     36 H3         -1.3694    1.1580   -0.7500 H         1 <0>         0.0792
     37 H4         -1.7308    1.1213    0.9925 H         1 <0>         0.0644
     38 H5          0.0872   -4.2356    2.0056 H         1 <0>         0.0740
     39 H6         -1.5578   -3.8106    2.5363 H         1 <0>         0.0893
     40 H7         -1.3231   -4.8390    1.1026 H         1 <0>         0.0861
     41 H8          0.5129   -4.2264   -1.4969 H         1 <0>         0.0823
     42 H9         -1.0702   -4.8477   -0.9714 H         1 <0>         0.0722
     43 H10        -0.9594   -3.7832   -2.3937 H         1 <0>         0.0862
     44 H11        -1.1129   -1.7018   -3.0159 H         1 <0>         0.0841
     45 H12        -1.0590   -0.0215   -2.4311 H         1 <0>         0.0930
     46 H13         2.5477   -1.9881   -3.2134 H         1 <0>         0.1125
     47 H14         1.1207   -2.9998   -2.8838 H         1 <0>         0.0891
     48 H15         0.0750   -0.1953   -5.0447 H         1 <0>         0.1780
     49 H16         3.5716   -3.3863   -4.0705 H         1 <0>         0.1237
     50 H17         4.7989   -5.4611   -3.5789 H         1 <0>         0.1271
     51 H18         4.1349   -7.5720   -4.6541 H         1 <0>         0.1246
     52 H19         2.2419   -7.6195   -6.2248 H         1 <0>         0.1262
     53 H20         0.9971   -5.5559   -6.7200 H         1 <0>         0.1262
     54 H21         2.7816   -1.2114   -4.3464 H         1 <0>         0.1784
     55 H22         5.1490   -1.0599   -4.9818 H         1 <0>         0.1412
     56 H23         3.4035    1.7810   -1.3353 H         1 <0>         0.1472
     57 H24         8.1121    2.1170   -2.6872 H         1 <0>         0.1355
     58 H25         7.7103    0.6488   -1.7406 H         1 <0>         0.0882
@<TRIPOS>BOND
     1    1    2 1
     2    1   35 1
     3    1   36 1
     4    1   37 1
     5    2    6 2
     6    2    3 1
     7    3    4 2
     8    3    9 1
     9    4    5 1
    10    4    8 1
    11    5    6 1
    12    5    7 1
    13    7   38 1
    14    7   39 1
    15    7   40 1
    16    8   41 1
    17    8   42 1
    18    8   43 1
    19    9   10 1
    20    9   44 1
    21    9   45 1
    22   10   11 1
    23   10   24 am
    24   11   12 1
    25   11   46 1
    26   11   47 1
    27   12   17 1
    28   12   13 2
    29   13   14 1
    30   13   48 1
    31   14   15 1
    32   14   16 1
    33   16   17 2
    34   17   18 1
    35   18   23 ar
    36   18   19 ar
    37   19   20 ar
    38   19   49 1
    39   20   21 ar
    40   20   50 1
    41   21   22 ar
    42   21   51 1
    43   22   23 ar
    44   22   52 1
    45   23   53 1
    46   24   25 2
    47   24   26 1
    48   26   31 ar
    49   26   27 ar
    50   27   28 ar
    51   27   54 1
    52   28   29 ar
    53   28   55 1
    54   29   34 1
    55   29   30 ar
    56   30   31 ar
    57   30   32 1
    58   31   56 1
    59   32   33 1
    60   33   34 1
    61   33   57 1
    62   33   58 1
@<TRIPOS>MOLECULE
ZINC49694072
   64    66     0     0     0
SMALL
USER_CHARGES

@<TRIPOS>ATOM
      1 C1         -0.0184    1.5028    0.0103 C.3       1 <0>        -0.1199
      2 C2          0.0021   -0.0041    0.0020 C.2       1 <0>         0.1897
      3 C3          0.0079   -0.8158   -1.1375 C.2       1 <0>        -0.8706
      4 C4          0.0276   -2.1281   -0.7193 C.2       1 <0>         0.2939
      5 O1          0.0337   -2.1220    0.6285 O.3       1 <0>        -0.0937
      6 N1          0.0230   -0.7727    1.0566 N.2       1 <0>        -0.3264
      7 C5          0.0394   -3.3129   -1.5812 C.2       1 <0>        -0.3147
      8 C6          0.0586   -4.5399   -1.0357 C.2       1 <0>         0.2308
      9 N2          0.0696   -5.6538   -1.8461 N.pl3     1 <0>        -0.6056
     10 C7          0.0604   -5.4999   -3.3030 C.3       1 <0>         0.0733
     11 C8          0.0906   -6.9924   -1.2510 C.3       1 <0>         0.0796
     12 S1         -0.0081   -0.2589   -2.8091 S.o2      1 <0>         2.7257
     13 O2         -0.5484   -1.3194   -3.5854 O.2       1 <0>        -0.9567
     14 O3         -0.5768    1.0433   -2.7979 O.2       1 <0>        -0.9540
     15 N3          1.5692   -0.0825   -3.2816 N.pl3     1 <0>        -0.9973
     16 C9          2.2697    1.1947   -3.0900 C.3       1 <0>         0.1193
     17 C10         3.5698    0.9338   -2.3229 C.3       1 <0>        -0.1164
     18 C11         4.3887   -0.1276   -3.0611 C.3       1 <0>        -0.1045
     19 C12         3.5946   -1.4343   -3.1243 C.3       1 <0>        -0.1271
     20 C13         2.2966   -1.2021   -3.8949 C.3       1 <0>         0.1238
     21 C14         5.6841   -0.3623   -2.3276 C.2       1 <0>         0.5172
     22 O4          5.9282    0.2581   -1.3144 O.2       1 <0>        -0.5328
     23 N4          6.5712   -1.2616   -2.7974 N.am      1 <0>        -0.7313
     24 C15         7.8305   -1.4897   -2.0843 C.3       1 <0>         0.1485
     25 C16         8.8396   -0.3962   -2.4905 C.3       1 <0>        -0.1224
     26 C17         9.9030   -0.3095   -1.4294 C.3       1 <0>        -0.1173
     27 C18        11.1376   -1.1697   -1.7606 C.3       1 <0>        -0.1188
     28 C19        10.7671   -2.5477   -2.3416 C.3       1 <0>        -0.1208
     29 C20         9.6032   -3.1798   -1.6274 C.3       1 <0>        -0.1114
     30 C21         8.3101   -2.8290   -2.3915 C.3       1 <0>        -0.1294
     31 H1          1.0042    1.8801    0.0026 H         1 <0>         0.0943
     32 H2         -0.5455    1.8639   -0.8728 H         1 <0>         0.1169
     33 H3         -0.5286    1.8543    0.9071 H         1 <0>         0.0891
     34 H4          0.0326   -3.1994   -2.6552 H         1 <0>         0.1685
     35 H5          0.0654   -4.6533    0.0383 H         1 <0>         0.1506
     36 H6          0.9414   -4.9388   -3.6146 H         1 <0>         0.0675
     37 H7          0.0714   -6.4836   -3.7723 H         1 <0>         0.0813
     38 H8         -0.8384   -4.9628   -3.6059 H         1 <0>         0.0733
     39 H9         -0.9318   -7.3382   -1.0984 H         1 <0>         0.0618
     40 H10         0.6104   -7.6789   -1.9192 H         1 <0>         0.0780
     41 H11         0.6086   -6.9559   -0.2927 H         1 <0>         0.0747
     42 H12         2.5000    1.6344   -4.0604 H         1 <0>         0.0799
     43 H13         1.6387    1.8754   -2.5186 H         1 <0>         0.0959
     44 H14         4.1454    1.8571   -2.2578 H         1 <0>         0.0859
     45 H15         3.3352    0.5793   -1.3192 H         1 <0>         0.0749
     46 H16         4.6019    0.2170   -4.0730 H         1 <0>         0.1020
     47 H17         4.1878   -2.1965   -3.6296 H         1 <0>         0.0798
     48 H18         3.3597   -1.7666   -2.1131 H         1 <0>         0.0737
     49 H19         1.6833   -2.1023   -3.8544 H         1 <0>         0.0925
     50 H20         2.5291   -0.9622   -4.9324 H         1 <0>         0.0802
     51 H21         6.3759   -1.7577   -3.6077 H         1 <0>         0.3977
     52 H22         7.6466   -1.4178   -1.0124 H         1 <0>         0.0834
     53 H23         9.2958   -0.6556   -3.4458 H         1 <0>         0.0665
     54 H24         8.3271    0.5621   -2.5744 H         1 <0>         0.0667
     55 H25        10.2147    0.7299   -1.3266 H         1 <0>         0.0615
     56 H26         9.4833   -0.6453   -0.4812 H         1 <0>         0.0622
     57 H27        11.7533   -0.6367   -2.4850 H         1 <0>         0.0591
     58 H28        11.7181   -1.3168   -0.8498 H         1 <0>         0.0598
     59 H29        10.5125   -2.4294   -3.3948 H         1 <0>         0.0610
     60 H30        11.6307   -3.2079   -2.2616 H         1 <0>         0.0603
     61 H31         9.7322   -4.2619   -1.6035 H         1 <0>         0.0681
     62 H32         9.5439   -2.7928   -0.6102 H         1 <0>         0.0691
     63 H33         7.5369   -3.5502   -2.1267 H         1 <0>         0.0659
     64 H34         8.5028   -2.8981   -3.4621 H         1 <0>         0.0671
@<TRIPOS>BOND
     1    1    2 1
     2    1   31 1
     3    1   32 1
     4    1   33 1
     5    2    6 2
     6    2    3 1
     7    3    4 2
     8    3   12 1
     9    4    5 1
    10    4    7 1
    11    5    6 1
    12    7    8 2
    13    7   34 1
    14    8    9 1
    15    8   35 1
    16    9   10 1
    17    9   11 1
    18   10   36 1
    19   10   37 1
    20   10   38 1
    21   11   39 1
    22   11   40 1
    23   11   41 1
    24   12   13 2
    25   12   14 2
    26   12   15 1
    27   15   20 1
    28   15   16 1
    29   16   17 1
    30   16   42 1
    31   16   43 1
    32   17   18 1
    33   17   44 1
    34   17   45 1
    35   18   19 1
    36   18   21 1
    37   18   46 1
    38   19   20 1
    39   19   47 1
    40   19   48 1
    41   20   49 1
    42   20   50 1
    43   21   22 2
    44   21   23 am
    45   23   24 1
    46   23   51 1
    47   24   30 1
    48   24   25 1
    49   24   52 1
    50   25   26 1
    51   25   53 1
    52   25   54 1
    53   26   27 1
    54   26   55 1
    55   26   56 1
    56   27   28 1
    57   27   57 1
    58   27   58 1
    59   28   29 1
    60   28   59 1
    61   28   60 1
    62   29   30 1
    63   29   61 1
    64   29   62 1
    65   30   63 1
    66   30   64 1
@<TRIPOS>MOLECULE
ZINC20206963
   48    51     0     0     0
SMALL
USER_CHARGES

@<TRIPOS>ATOM
      1 C1          1.3405   -3.0941   -1.4412 C.3       1 <0>        -0.1401
      2 C2          0.5282   -1.8961   -0.9454 C.3       1 <0>        -0.0803
      3 C3          0.6974   -0.7274   -1.9181 C.3       1 <0>        -0.1869
      4 C4         -0.9503   -2.2812   -0.8631 C.3       1 <0>        -0.5752
      5 S1         -1.8923   -0.9118   -0.1365 S.o2      1 <0>         2.4946
      6 O1         -1.5362   -0.7429    1.2287 O.2       1 <0>        -0.8753
      7 O2         -1.9065    0.1977   -1.0242 O.2       1 <0>        -0.8897
      8 C5         -3.5601   -1.4791   -0.0992 C.2       1 <0>        -0.1984
      9 N1         -4.3421   -1.3081   -1.1198 N.2       1 <0>        -0.3669
     10 S2         -5.7988   -1.9854   -0.6410 S.3       1 <0>         0.4223
     11 C6         -5.3897   -2.4399    0.9096 C.2       1 <0>         0.3003
     12 N2         -6.1196   -2.9904    1.8528 N.2       1 <0>        -0.5291
     13 C7         -5.5776   -3.2099    3.0662 C.2       1 <0>         0.5373
     14 O3         -6.1864   -3.8374    3.9185 O.2       1 <0>        -0.4263
     15 C8         -4.2259   -2.6717    3.3419 C.2       1 <0>        -0.2735
     16 C9         -3.8030   -2.3806    4.6299 C.2       1 <0>         0.0888
     17 C10        -4.7310   -2.3514    5.6842 C.2       1 <0>        -0.0413
     18 C11        -4.4273   -2.2335    7.0328 C.2       1 <0>        -0.1141
     19 C12        -5.6396   -2.2464    7.7213 C.2       1 <0>        -0.2065
     20 C13        -6.6382   -2.3708    6.7787 C.2       1 <0>         0.0864
     21 O4         -6.0735   -2.4274    5.5601 O.3       1 <0>        -0.1205
     22 C14        -8.0856   -2.4270    7.0601 C.ar      1 <0>        -0.0226
     23 C15        -8.5483   -2.3467    8.3764 C.ar      1 <0>        -0.0850
     24 C16        -9.9023   -2.3999    8.6327 C.ar      1 <0>        -0.1054
     25 C17       -10.8028   -2.5328    7.5903 C.ar      1 <0>        -0.0949
     26 C18       -10.3522   -2.6134    6.2833 C.ar      1 <0>        -0.0347
     27 C19        -8.9998   -2.5548    6.0117 C.ar      1 <0>        -0.0788
     28 Cl1       -11.4904   -2.7806    4.9833 Cl        1 <0>        -0.0576
     29 C20        -3.3462   -2.4609    2.1599 C.2       1 <0>         0.4239
     30 N3         -2.0461   -2.5940    2.1982 N.2       1 <0>        -0.6213
     31 N4         -4.0533   -2.1085    0.9932 N.pl3     1 <0>        -0.4631
     32 H1          2.3937   -2.8197   -1.4998 H         1 <0>         0.0679
     33 H2          1.2199   -3.9267   -0.7482 H         1 <0>         0.0615
     34 H3          0.9864   -3.3893   -2.4290 H         1 <0>         0.0621
     35 H4          0.8822   -1.6009    0.0424 H         1 <0>         0.0917
     36 H5          0.3434   -1.0226   -2.9059 H         1 <0>         0.0710
     37 H6          0.1187    0.1261   -1.5649 H         1 <0>         0.0728
     38 H7          1.7507   -0.4530   -1.9767 H         1 <0>         0.0752
     39 H8         -1.3274   -2.4908   -1.8641 H         1 <0>         0.1419
     40 H9         -1.0604   -3.1688   -0.2401 H         1 <0>         0.1475
     41 H10        -2.7602   -2.1762    4.8226 H         1 <0>         0.1679
     42 H11        -3.4416   -2.1486    7.4659 H         1 <0>         0.1669
     43 H12        -5.7715   -2.1732    8.7907 H         1 <0>         0.1632
     44 H13        -7.8470   -2.2437    9.1912 H         1 <0>         0.1380
     45 H14       -10.2608   -2.3379    9.6495 H         1 <0>         0.1427
     46 H15       -11.8620   -2.5742    7.7971 H         1 <0>         0.1400
     47 H16        -8.6494   -2.6125    4.9918 H         1 <0>         0.1435
     48 H17        -1.6082   -2.8421    3.0273 H         1 <0>         0.3796
@<TRIPOS>BOND
     1    1    2 1
     2    1   32 1
     3    1   33 1
     4    1   34 1
     5    2    3 1
     6    2    4 1
     7    2   35 1
     8    3   36 1
     9    3   37 1
    10    3   38 1
    11    4    5 1
    12    4   39 1
    13    4   40 1
    14    5    6 2
    15    5    7 2
    16    5    8 1
    17    8   31 1
    18    8    9 2
    19    9   10 1
    20   10   11 1
    21   11   31 1
    22   11   12 2
    23   12   13 1
    24   13   14 2
    25   13   15 1
    26   15   16 2
    27   15   29 1
    28   16   17 1
    29   16   41 1
    30   17   21 1
    31   17   18 2
    32   18   19 1
    33   18   42 1
    34   19   20 2
    35   19   43 1
    36   20   21 1
    37   20   22 1
    38   22   27 ar
    39   22   23 ar
    40   23   24 ar
    41   23   44 1
    42   24   25 ar
    43   24   45 1
    44   25   26 ar
    45   25   46 1
    46   26   27 ar
    47   26   28 1
    48   27   47 1
    49   29   30 2
    50   29   31 1
    51   30   48 1
@<TRIPOS>MOLECULE
ZINC09430643
   58    60     0     0     0
SMALL
USER_CHARGES
2-(3-azepan-1-ylsulfonyl-9-oxo-7-oxa-10-azabicyclo[4.4.0]deca-2,4,11-trien-10-yl)-N-sec-butyl-acetamide
@<TRIPOS>ATOM
      1 C1          4.8178    4.9838   -3.2632 C.3       1 <0>        -0.1549
      2 C2          4.5995    5.9240   -4.4503 C.3       1 <0>        -0.1315
      3 C3          3.2489    5.6187   -5.1011 C.3       1 <0>         0.1406
      4 H1          3.2050    4.5630   -5.3689 H         1 <0>         0.0891
      5 C4          3.0852    6.4717   -6.3606 C.3       1 <0>        -0.1646
      6 N1          2.1713    5.9285   -4.1581 N.am      1 <0>        -0.7204
      7 C5          0.9804    5.3070   -4.2679 C.2       1 <0>         0.4988
      8 O1          0.8008    4.4914   -5.1473 O.2       1 <0>        -0.5214
      9 C6         -0.1280    5.6257   -3.2979 C.3       1 <0>         0.0835
     10 N2         -1.3099    4.8249   -3.6267 N.am      1 <0>        -0.5341
     11 C7         -1.4942    3.5590   -3.0528 C.ar      1 <0>         0.0866
     12 C8         -0.7572    3.1690   -1.9469 C.ar      1 <0>        -0.0299
     13 C9         -0.9538    1.9155   -1.3968 C.ar      1 <0>        -0.6720
     14 C10        -1.8791    1.0501   -1.9509 C.ar      1 <0>        -0.0077
     15 C11        -2.6225    1.4360   -3.0516 C.ar      1 <0>        -0.1257
     16 C12        -2.4308    2.6886   -3.6080 C.ar      1 <0>         0.1424
     17 O2         -3.1488    3.0824   -4.6936 O.3       1 <0>        -0.2941
     18 C13        -3.4678    4.4734   -4.7834 C.3       1 <0>         0.0538
     19 C14        -2.2391    5.2951   -4.4872 C.2       1 <0>         0.4948
     20 O3         -2.0856    6.3744   -5.0191 O.2       1 <0>        -0.4970
     21 S1         -0.0172    1.4168    0.0098 S.o2      1 <0>         2.6866
     22 O4          0.0021   -0.0041    0.0020 O.2       1 <0>        -0.9501
     23 O5          1.1718    2.1948    0.0027 O.2       1 <0>        -0.9495
     24 N3         -0.8720    1.8711    1.3534 N.pl3     1 <0>        -0.9868
     25 C15        -0.6296    3.1792    1.9194 C.3       1 <0>         0.1244
     26 C16         0.5090    3.0997    2.9579 C.3       1 <0>        -0.1421
     27 C17         0.0509    2.3935    4.1642 C.3       1 <0>        -0.1196
     28 C18        -0.3493    0.9403    3.9279 C.3       1 <0>        -0.1194
     29 C19        -1.7843    0.8859    3.4650 C.3       1 <0>        -0.1255
     30 C20        -1.8457    0.9216    1.9271 C.3       1 <0>         0.1096
     31 H2          4.0215    5.1294   -2.5332 H         1 <0>         0.0557
     32 H3          4.8073    3.9509   -3.6110 H         1 <0>         0.0563
     33 H4          5.7800    5.2013   -2.7996 H         1 <0>         0.0586
     34 H5          5.3957    5.7784   -5.1803 H         1 <0>         0.0803
     35 H6          4.6100    6.9569   -4.1024 H         1 <0>         0.0690
     36 H7          3.8869    6.2412   -7.0622 H         1 <0>         0.0675
     37 H8          2.1230    6.2542   -6.8242 H         1 <0>         0.0599
     38 H9          3.1291    7.5273   -6.0928 H         1 <0>         0.0579
     39 H10         2.3150    6.5808   -3.4548 H         1 <0>         0.4011
     40 H11        -0.3765    6.6848   -3.3653 H         1 <0>         0.1279
     41 H12         0.1981    5.3928   -2.2842 H         1 <0>         0.1189
     42 H13        -0.0313    3.8420   -1.5150 H         1 <0>         0.1458
     43 H14        -2.0251    0.0707   -1.5198 H         1 <0>         0.1533
     44 H15        -3.3472    0.7592   -3.4793 H         1 <0>         0.1537
     45 H16        -4.2480    4.7141   -4.0613 H         1 <0>         0.1070
     46 H17        -3.8219    4.6998   -5.7891 H         1 <0>         0.1526
     47 H18        -0.3438    3.8705    1.1266 H         1 <0>         0.0759
     48 H19        -1.5373    3.5388    2.4042 H         1 <0>         0.0843
     49 H20         0.8241    4.1076    3.2277 H         1 <0>         0.0776
     50 H21         1.3540    2.5640    2.5252 H         1 <0>         0.0717
     51 H22        -0.8075    2.9269    4.5725 H         1 <0>         0.0608
     52 H23         0.8535    2.4159    4.9014 H         1 <0>         0.0594
     53 H24        -0.2451    0.3789    4.8563 H         1 <0>         0.0661
     54 H25         0.2958    0.5045    3.1650 H         1 <0>         0.0633
     55 H26        -2.3269    1.7408    3.8683 H         1 <0>         0.0694
     56 H27        -2.2452   -0.0344    3.8238 H         1 <0>         0.0783
     57 H28        -2.8494    1.2150    1.6197 H         1 <0>         0.0685
     58 H29        -1.6356   -0.0764    1.5425 H         1 <0>         0.0954
@<TRIPOS>BOND
     1    1    2 1
     2    1   31 1
     3    1   32 1
     4    1   33 1
     5    2    3 1
     6    2   34 1
     7    2   35 1
     8    3    4 1
     9    3    5 1
    10    3    6 1
    11    5   36 1
    12    5   37 1
    13    5   38 1
    14    6    7 am
    15    6   39 1
    16    7    8 2
    17    7    9 1
    18    9   10 1
    19    9   40 1
    20    9   41 1
    21   10   19 am
    22   10   11 1
    23   11   16 ar
    24   11   12 ar
    25   12   13 ar
    26   12   42 1
    27   13   14 ar
    28   13   21 1
    29   14   15 ar
    30   14   43 1
    31   15   16 ar
    32   15   44 1
    33   16   17 1
    34   17   18 1
    35   18   19 1
    36   18   45 1
    37   18   46 1
    38   19   20 2
    39   21   22 2
    40   21   23 2
    41   21   24 1
    42   24   30 1
    43   24   25 1
    44   25   26 1
    45   25   47 1
    46   25   48 1
    47   26   27 1
    48   26   49 1
    49   26   50 1
    50   27   28 1
    51   27   51 1
    52   27   52 1
    53   28   29 1
    54   28   53 1
    55   28   54 1
    56   29   30 1
    57   29   55 1
    58   29   56 1
    59   30   57 1
    60   30   58 1
@<TRIPOS>MOLECULE
ZINC14018128
   52    56     0     0     0
SMALL
USER_CHARGES
(3S)-1-(benzenesulfonyl)-N-(6,7-dihydro-[1,4]dioxino[2,3-f][1,3]benzothiazol-2-yl)piperidine-3-carboxamide
@<TRIPOS>ATOM
      1 C1          1.2084   -0.6789   -0.0136 C.ar      1 <0>        -0.0623
      2 C2          0.0021   -0.0041    0.0020 C.ar      1 <0>        -0.1389
      3 C3         -0.0167    1.3781    0.0096 C.ar      1 <0>        -0.0201
      4 C4          1.1709    2.0855    0.0021 C.ar      1 <0>        -0.6782
      5 C5          2.3773    1.4107   -0.0136 C.ar      1 <0>        -0.0217
      6 C6          2.3961    0.0285   -0.0212 C.ar      1 <0>        -0.1402
      7 S1          1.1470    3.8473    0.0112 S.o2      1 <0>         2.6906
      8 O1          2.3816    4.2732   -0.5490 O.2       1 <0>        -0.9510
      9 O2         -0.1088    4.2393   -0.5259 O.2       1 <0>        -0.9506
     10 N1          1.1552    4.3289    1.5957 N.pl3     1 <0>        -0.9975
     11 C7          2.4230    4.5638    2.3001 C.3       1 <0>         0.1117
     12 C8          2.3956    5.9691    2.9092 C.3       1 <0>        -0.1299
     13 C9          1.1515    6.1156    3.7884 C.3       1 <0>        -0.1138
     14 C10        -0.1042    5.9356    2.9323 C.3       1 <0>        -0.1142
     15 H1         -0.1101    6.6781    2.1344 H         1 <0>         0.1153
     16 C11        -0.1052    4.5353    2.3219 C.3       1 <0>         0.1354
     17 C12        -1.3289    6.1120    3.7925 C.2       1 <0>         0.5182
     18 O3         -2.1261    5.2051    3.9058 O.2       1 <0>        -0.4594
     19 N2         -1.5383    7.2776    4.4360 N.am      1 <0>        -0.6167
     20 C13        -2.6648    7.4398    5.2272 C.2       1 <0>         0.3719
     21 N3         -3.6327    6.5867    5.4659 N.2       1 <0>        -0.5012
     22 C14        -4.6788    6.8806    6.2704 C.ar      1 <0>         0.1103
     23 C15        -5.7755    6.0555    6.6100 C.ar      1 <0>        -0.0642
     24 C16        -6.7727    6.5084    7.4446 C.ar      1 <0>         0.0720
     25 C17        -6.7276    7.7955    7.9803 C.ar      1 <0>         0.0743
     26 C18        -5.6654    8.6279    7.6658 C.ar      1 <0>        -0.0591
     27 C19        -4.6719    8.1765    6.8326 C.ar      1 <0>        -0.1446
     28 S2         -3.1724    8.8670    6.1757 S.3       1 <0>         0.0209
     29 O4         -7.7078    8.2469    8.8088 O.3       1 <0>        -0.2990
     30 C20        -8.9395    7.5165    8.8052 C.3       1 <0>         0.0195
     31 C21        -8.6084    6.0199    8.8798 C.3       1 <0>         0.0198
     32 O5         -7.8136    5.6773    7.7402 O.3       1 <0>        -0.3029
     33 H2          1.2231   -1.7588   -0.0196 H         1 <0>         0.1323
     34 H3         -0.9258   -0.5567    0.0079 H         1 <0>         0.1346
     35 H4         -0.9592    1.9054    0.0170 H         1 <0>         0.1405
     36 H5          3.3052    1.9634   -0.0192 H         1 <0>         0.1397
     37 H6          3.3386   -0.4987   -0.0327 H         1 <0>         0.1341
     38 H7          2.5434    3.8246    3.0921 H         1 <0>         0.0747
     39 H8          3.2520    4.4841    1.5969 H         1 <0>         0.0988
     40 H9          3.2890    6.1206    3.5150 H         1 <0>         0.0871
     41 H10         2.3665    6.7110    2.1111 H         1 <0>         0.0758
     42 H11         1.1689    5.3575    4.5714 H         1 <0>         0.0778
     43 H12         1.1424    7.1064    4.2426 H         1 <0>         0.0750
     44 H13        -0.9441    4.4393    1.6325 H         1 <0>         0.1048
     45 H14        -0.1953    3.7937    3.1156 H         1 <0>         0.0856
     46 H15        -0.9007    8.0029    4.3454 H         1 <0>         0.4303
     47 H16        -5.8321    5.0546    6.2084 H         1 <0>         0.1476
     48 H17        -5.6199    9.6272    8.0731 H         1 <0>         0.1482
     49 H18        -9.4890    7.7264    7.8875 H         1 <0>         0.0824
     50 H19        -9.5408    7.8037    9.6678 H         1 <0>         0.1277
     51 H20        -9.5306    5.4389    8.8725 H         1 <0>         0.1273
     52 H21        -8.0504    5.8117    9.7927 H         1 <0>         0.0812
@<TRIPOS>BOND
     1    1    6 ar
     2    1    2 ar
     3    1   33 1
     4    2    3 ar
     5    2   34 1
     6    3    4 ar
     7    3   35 1
     8    4    5 ar
     9    4    7 1
    10    5    6 ar
    11    5   36 1
    12    6   37 1
    13    7    8 2
    14    7    9 2
    15    7   10 1
    16   10   16 1
    17   10   11 1
    18   11   12 1
    19   11   38 1
    20   11   39 1
    21   12   13 1
    22   12   40 1
    23   12   41 1
    24   13   14 1
    25   13   42 1
    26   13   43 1
    27   14   15 1
    28   14   16 1
    29   14   17 1
    30   16   44 1
    31   16   45 1
    32   17   18 2
    33   17   19 am
    34   19   20 1
    35   19   46 1
    36   20   28 1
    37   20   21 2
    38   21   22 1
    39   22   27 ar
    40   22   23 ar
    41   23   24 ar
    42   23   47 1
    43   24   32 1
    44   24   25 ar
    45   25   26 ar
    46   25   29 1
    47   26   27 ar
    48   26   48 1
    49   27   28 1
    50   29   30 1
    51   30   31 1
    52   30   49 1
    53   30   50 1
    54   31   32 1
    55   31   51 1
    56   31   52 1
@<TRIPOS>MOLECULE
ZINC32074535
   57    61     0     0     0
SMALL
USER_CHARGES
2-(ethyl-methyl-oxo-BLAHyl)-N-[[(2R)-tetrahydrofuran-2-yl]methyl]acetamide
@<TRIPOS>ATOM
      1 C1         -9.4539   10.5271   13.5399 C.3       1 <0>        -0.1542
      2 C2        -10.0827    9.5069   12.5888 C.3       1 <0>        -0.1093
      3 C3         -8.9854    8.6265   11.9873 C.3       1 <0>         0.1157
      4 C4         -9.6101    7.6050   11.0356 C.3       1 <0>        -0.0967
      5 C5         -8.5269    6.9167   10.2435 C.ar      1 <0>         0.1985
      6 C6         -7.2526    7.4492   10.1550 C.ar      1 <0>        -0.1813
      7 C7         -6.2827    6.8026    9.4156 C.ar      1 <0>         0.0090
      8 C8         -6.6052    5.5950    8.7562 C.ar      1 <0>        -0.1443
      9 C9         -5.7239    4.7574    7.9246 C.2       1 <0>         0.1953
     10 C10        -6.2996    3.6073    7.3907 C.2       1 <0>        -0.2974
     11 C11        -5.5592    2.7326    6.5837 C.2       1 <0>         0.5833
     12 O1         -6.0671    1.7259    6.1189 O.2       1 <0>        -0.5131
     13 N1         -4.2633    3.0376    6.3357 N.am      1 <0>        -0.5127
     14 C12        -3.7321    4.1639    6.8765 C.2       1 <0>         0.3924
     15 N2         -4.4132    4.9793    7.6187 N.2       1 <0>        -0.5114
     16 C13        -3.4425    2.1593    5.4985 C.3       1 <0>         0.0751
     17 C14        -3.5539    2.5898    4.0586 C.2       1 <0>         0.5010
     18 O2         -4.2504    3.5371    3.7611 O.2       1 <0>        -0.5300
     19 N3         -2.8795    1.9222    3.1015 N.am      1 <0>        -0.7297
     20 C15        -2.9878    2.3407    1.7018 C.3       1 <0>         0.1256
     21 C16        -2.1306    1.4234    0.8274 C.3       1 <0>         0.0598
     22 H1         -2.4396    0.3849    1.0175 H         1 <0>         0.0795
     23 C17        -2.2297    1.8468   -0.6549 C.3       1 <0>        -0.1470
     24 C18        -0.8044    1.6196   -1.2064 C.3       1 <0>        -0.1560
     25 C19        -0.0127    1.0858    0.0080 C.3       1 <0>         0.0462
     26 O3         -0.7310    1.5725    1.1626 O.3       1 <0>        -0.3688
     27 S1         -7.9734    3.6279    7.9724 S.3       1 <0>         0.2062
     28 C20        -7.9264    5.1347    8.9115 C.ar      1 <0>         0.1124
     29 N4         -8.8194    5.7847    9.6244 N.ar      1 <0>        -0.4489
     30 C21        -6.8873    8.7327   10.8559 C.3       1 <0>         0.1051
     31 O4         -8.0665    9.4360   11.2450 O.3       1 <0>        -0.3575
     32 C22        -8.2399    7.8974   13.1069 C.3       1 <0>        -0.1874
     33 H2        -10.2428   11.1600   13.9723 H         1 <0>         0.0563
     34 H3         -8.7424   11.1560   12.9847 H         1 <0>         0.0642
     35 H4         -8.9244    9.9987   14.3464 H         1 <0>         0.0566
     36 H5        -10.7942    8.8780   13.1440 H         1 <0>         0.0807
     37 H6        -10.6122   10.0352   11.7823 H         1 <0>         0.0749
     38 H7        -10.1680    6.8559   11.6166 H         1 <0>         0.1045
     39 H8        -10.2955    8.1184   10.3452 H         1 <0>         0.1045
     40 H9         -5.2876    7.2156    9.3414 H         1 <0>         0.1511
     41 H10        -2.6961    4.3932    6.6752 H         1 <0>         0.2098
     42 H11        -2.3924    2.2227    5.8200 H         1 <0>         0.1351
     43 H12        -3.7949    1.1222    5.5994 H         1 <0>         0.1367
     44 H13        -2.2478    1.0631    3.3714 H         1 <0>         0.4293
     45 H14        -4.0379    2.2774    1.3804 H         1 <0>         0.0824
     46 H15        -2.6354    3.3778    1.6008 H         1 <0>         0.0766
     47 H16        -2.9759    1.2207   -1.1659 H         1 <0>         0.0820
     48 H17        -2.5335    2.9023   -0.7152 H         1 <0>         0.0812
     49 H18        -0.8415    0.8905   -2.0292 H         1 <0>         0.0800
     50 H19        -0.3991    2.5721   -1.5785 H         1 <0>         0.0778
     51 H20         0.0098   -0.0135   -0.0235 H         1 <0>         0.0630
     52 H21         1.0157    1.4747   -0.0251 H         1 <0>         0.0953
     53 H22        -6.2925    8.5043   11.7526 H         1 <0>         0.0762
     54 H23        -6.2982    9.3665   10.1768 H         1 <0>         0.1127
     55 H24        -7.4518    7.2654   12.6716 H         1 <0>         0.0610
     56 H25        -8.9461    7.2682   13.6685 H         1 <0>         0.0732
     57 H26        -7.7858    8.6344   13.7855 H         1 <0>         0.0755
@<TRIPOS>BOND
     1    1    2 1
     2    1   33 1
     3    1   34 1
     4    1   35 1
     5    2    3 1
     6    2   36 1
     7    2   37 1
     8    3   31 1
     9    3    4 1
    10    3   32 1
    11    4    5 1
    12    4   38 1
    13    4   39 1
    14    5   29 ar
    15    5    6 ar
    16    6    7 ar
    17    6   30 1
    18    7    8 ar
    19    7   40 1
    20    8   28 ar
    21    8    9 1
    22    9   15 1
    23    9   10 2
    24   10   11 1
    25   10   27 1
    26   11   12 2
    27   11   13 am
    28   13   14 1
    29   13   16 1
    30   14   15 2
    31   14   41 1
    32   16   17 1
    33   16   42 1
    34   16   43 1
    35   17   18 2
    36   17   19 am
    37   19   20 1
    38   19   44 1
    39   20   21 1
    40   20   45 1
    41   20   46 1
    42   21   22 1
    43   21   26 1
    44   21   23 1
    45   23   24 1
    46   23   47 1
    47   23   48 1
    48   24   25 1
    49   24   49 1
    50   24   50 1
    51   25   26 1
    52   25   51 1
    53   25   52 1
    54   27   28 1
    55   28   29 ar
    56   30   31 1
    57   30   53 1
    58   30   54 1
    59   32   55 1
    60   32   56 1
    61   32   57 1
@<TRIPOS>MOLECULE
ZINC04426093
   60    63     0     0     0
SMALL
USER_CHARGES

@<TRIPOS>ATOM
      1 C1         -0.0187    1.5258    0.0104 C.3       1 <0>        -0.1757
      2 C2          0.0021   -0.0041    0.0020 C.3       1 <0>         0.0982
      3 N1          0.6878   -0.4765   -1.2033 N.am      1 <0>        -0.6111
      4 C3          2.1353   -0.7012   -1.1821 C.3       1 <0>         0.1119
      5 C4          2.4212   -2.1448   -0.7635 C.3       1 <0>        -0.1691
      6 C5         -0.0130   -0.7045   -2.3317 C.2       1 <0>         0.5177
      7 O1          0.5546   -1.0956   -3.3296 O.2       1 <0>        -0.5118
      8 C6         -1.5021   -0.4734   -2.3536 C.3       1 <0>         0.0411
      9 O2         -2.0131   -0.7827   -3.6517 O.3       1 <0>        -0.2888
     10 C7         -3.3496   -0.6266   -3.8419 C.ar      1 <0>         0.1399
     11 C8         -4.1519   -0.1793   -2.8022 C.ar      1 <0>        -0.2096
     12 C9         -5.5101   -0.0210   -2.9982 C.ar      1 <0>        -0.0364
     13 C10        -6.0703   -0.3084   -4.2292 C.ar      1 <0>        -0.1329
     14 C11        -5.2730   -0.7548   -5.2669 C.ar      1 <0>        -0.0557
     15 C12        -3.9132   -0.9089   -5.0778 C.ar      1 <0>        -0.1484
     16 C13        -7.5524   -0.1353   -4.4402 C.3       1 <0>         0.2802
     17 H1         -8.0099    0.2209   -3.5172 H         1 <0>         0.1103
     18 C14        -7.7882    0.8761   -5.5404 C.2       1 <0>        -0.3129
     19 C15        -8.2003    0.5123   -6.7735 C.2       1 <0>         0.2548
     20 C16        -8.4103    1.5437   -7.8570 C.3       1 <0>        -0.0927
     21 C17        -8.8583    2.8651   -7.2293 C.3       1 <0>        -0.0524
     22 C18        -7.7812    3.3175   -6.2376 C.3       1 <0>        -0.1568
     23 C19        -7.5607    2.2281   -5.2256 C.2       1 <0>         0.4148
     24 O3         -7.1772    2.5220   -4.1105 O.2       1 <0>        -0.4654
     25 C20        -9.0301    3.9225   -8.3217 C.3       1 <0>        -0.1422
     26 C21       -10.1843    2.6628   -6.4934 C.3       1 <0>        -0.1536
     27 N2         -8.4507   -0.8000   -7.0961 N.pl3     1 <0>        -0.6098
     28 C22        -8.5557   -1.7163   -6.0625 C.2       1 <0>         0.4859
     29 N3         -8.1413   -1.4163   -4.8088 N.pl3     1 <0>        -0.3801
     30 N4         -8.3965   -2.5443   -4.0304 N.2       1 <0>        -0.2936
     31 C23        -8.9279   -3.4398   -4.8259 C.2       1 <0>         0.2169
     32 N5         -9.0214   -2.9348   -6.0537 N.2       1 <0>        -0.5456
     33 H2          1.0039    1.9031    0.0027 H         1 <0>         0.0630
     34 H3         -0.5459    1.8868   -0.8726 H         1 <0>         0.0575
     35 H4         -0.5289    1.8773    0.9072 H         1 <0>         0.0730
     36 H5          0.5293   -0.3651    0.8851 H         1 <0>         0.0872
     37 H6         -1.0205   -0.3814    0.0098 H         1 <0>         0.0787
     38 H7          2.5453   -0.5232   -2.1762 H         1 <0>         0.0857
     39 H8          2.5986   -0.0180   -0.4703 H         1 <0>         0.0804
     40 H9          1.9579   -2.8280   -1.4752 H         1 <0>         0.0597
     41 H10         3.4982   -2.3119   -0.7477 H         1 <0>         0.0691
     42 H11         2.0113   -2.3228    0.2307 H         1 <0>         0.0562
     43 H12        -1.9801   -1.1142   -1.6127 H         1 <0>         0.0936
     44 H13        -1.7112    0.5706   -2.1201 H         1 <0>         0.0946
     45 H14        -3.7149    0.0446   -1.8403 H         1 <0>         0.1306
     46 H15        -6.1351    0.3272   -2.1892 H         1 <0>         0.1303
     47 H16        -5.7129   -0.9790   -6.2275 H         1 <0>         0.1169
     48 H17        -3.2902   -1.2533   -5.8899 H         1 <0>         0.1339
     49 H18        -7.4764    1.6971   -8.3977 H         1 <0>         0.1095
     50 H19        -9.1760    1.1926   -8.5487 H         1 <0>         0.0998
     51 H20        -6.8516    3.5124   -6.7724 H         1 <0>         0.1052
     52 H21        -8.1097    4.2250   -5.7311 H         1 <0>         0.1025
     53 H22        -9.7827    3.5882   -9.0358 H         1 <0>         0.0636
     54 H23        -9.3492    4.8622   -7.8707 H         1 <0>         0.0665
     55 H24        -8.0809    4.0705   -8.8366 H         1 <0>         0.0630
     56 H25       -10.0549    1.9162   -5.7099 H         1 <0>         0.0566
     57 H26       -10.5001    3.6061   -6.0478 H         1 <0>         0.0666
     58 H27       -10.9427    2.3221   -7.1983 H         1 <0>         0.0635
     59 H28        -8.5512   -1.0765   -8.0204 H         1 <0>         0.4396
     60 H29        -9.2405   -4.4309   -4.5321 H         1 <0>         0.2261
@<TRIPOS>BOND
     1    1    2 1
     2    1   33 1
     3    1   34 1
     4    1   35 1
     5    2    3 1
     6    2   36 1
     7    2   37 1
     8    3    4 1
     9    3    6 am
    10    4    5 1
    11    4   38 1
    12    4   39 1
    13    5   40 1
    14    5   41 1
    15    5   42 1
    16    6    7 2
    17    6    8 1
    18    8    9 1
    19    8   43 1
    20    8   44 1
    21    9   10 1
    22   10   15 ar
    23   10   11 ar
    24   11   12 ar
    25   11   45 1
    26   12   13 ar
    27   12   46 1
    28   13   14 ar
    29   13   16 1
    30   14   15 ar
    31   14   47 1
    32   15   48 1
    33   16   17 1
    34   16   29 1
    35   16   18 1
    36   18   23 1
    37   18   19 2
    38   19   20 1
    39   19   27 1
    40   20   21 1
    41   20   49 1
    42   20   50 1
    43   21   22 1
    44   21   25 1
    45   21   26 1
    46   22   23 1
    47   22   51 1
    48   22   52 1
    49   23   24 2
    50   25   53 1
    51   25   54 1
    52   25   55 1
    53   26   56 1
    54   26   57 1
    55   26   58 1
    56   27   28 1
    57   27   59 1
    58   28   32 2
    59   28   29 1
    60   29   30 1
    61   30   31 2
    62   31   32 1
    63   31   60 1
@<TRIPOS>MOLECULE
ZINC09748196
   47    50     0     0     0
SMALL
USER_CHARGES

@<TRIPOS>ATOM
      1 C1          0.0286    1.5261    0.0318 C.3       1 <0>        -0.1159
      2 C2          0.0407    0.0192    0.0176 C.ar      1 <0>        -0.0581
      3 C3          0.0442   -0.6601   -1.1868 C.ar      1 <0>        -0.1252
      4 C4          0.0549   -2.0428   -1.2039 C.ar      1 <0>        -0.0568
      5 C5          0.0621   -2.7494   -0.0172 C.ar      1 <0>        -0.1443
      6 C6          0.0591   -2.0702    1.1936 C.ar      1 <0>         0.1287
      7 C7          0.0541   -0.6820    1.2075 C.ar      1 <0>        -0.1458
      8 N1          0.0660   -2.7847    2.3998 N.am      1 <0>        -0.5280
      9 C8          0.0817   -4.1482    2.4729 C.2       1 <0>         0.5590
     10 O1          0.3426   -4.9214    1.5765 O.2       1 <0>        -0.4152
     11 C9         -0.2872   -4.4975    3.8811 C.3       1 <0>        -0.0472
     12 H1         -1.3665   -4.5544    4.0222 H         1 <0>         0.1754
     13 C10         0.3653   -3.2351    4.5696 C.3       1 <0>         0.0423
     14 H2          1.4093   -3.4121    4.3110 H         1 <0>         0.0874
     15 C11         0.0637   -2.1909    3.6366 C.2       1 <0>         0.5895
     16 O2         -0.1512   -1.0247    3.8887 O.2       1 <0>        -0.4323
     17 N2          0.3666   -3.6722    5.8970 N.pl3     1 <0>        -0.5221
     18 N3          0.7489   -5.0457    5.7528 N.2       1 <0>         0.1218
     19 N4          0.4177   -5.5271    4.6228 N.2       1 <0>        -0.1741
     20 C12         0.0578   -2.9222    7.1170 C.3       1 <0>         0.1547
     21 C13        -1.4152   -3.0330    7.4154 C.2       1 <0>         0.4882
     22 O3         -2.1361   -3.6752    6.6813 O.2       1 <0>        -0.5080
     23 N5         -1.9315   -2.4184    8.4981 N.am      1 <0>        -0.6668
     24 C14        -3.3134   -2.4399    8.7229 C.ar      1 <0>         0.1440
     25 C15        -3.9433   -1.3381    9.2868 C.ar      1 <0>        -0.1076
     26 C16        -5.3064   -1.3605    9.5075 C.ar      1 <0>        -0.1214
     27 C17        -6.0457   -2.4807    9.1675 C.ar      1 <0>         0.0980
     28 C18        -5.4198   -3.5814    8.6047 C.ar      1 <0>        -0.0572
     29 C19        -4.0564   -3.5603    8.3771 C.ar      1 <0>        -0.0860
     30 Cl1        -6.3490   -4.9847    8.1793 Cl        1 <0>        -0.0393
     31 F1         -7.3789   -2.5008    9.3850 F         1 <0>        -0.1241
     32 C20         0.0581   -2.7793   -2.5187 C.3       1 <0>        -0.1164
     33 H3          1.0533    1.8977    0.0286 H         1 <0>         0.0748
     34 H4         -0.4940    1.8936   -0.8513 H         1 <0>         0.0712
     35 H5         -0.4823    1.8768    0.9285 H         1 <0>         0.0699
     36 H6          0.0382   -0.1097   -2.1160 H         1 <0>         0.1291
     37 H7          0.0698   -3.8293   -0.0311 H         1 <0>         0.1497
     38 H8          0.0562   -0.1508    2.1479 H         1 <0>         0.1499
     39 H9          0.6291   -3.3321    7.9498 H         1 <0>         0.1348
     40 H10         0.3221   -1.8742    6.9759 H         1 <0>         0.1305
     41 H11        -1.3457   -1.9612    9.1217 H         1 <0>         0.4189
     42 H12        -3.3672   -0.4642    9.5530 H         1 <0>         0.1458
     43 H13        -5.7961   -0.5036    9.9460 H         1 <0>         0.1523
     44 H14        -3.5691   -4.4166    7.9347 H         1 <0>         0.1586
     45 H15         1.0865   -2.9489   -2.8376 H         1 <0>         0.0757
     46 H16        -0.4481   -3.7373   -2.3997 H         1 <0>         0.0703
     47 H17        -0.4618   -2.1845   -3.2697 H         1 <0>         0.0712
@<TRIPOS>BOND
     1    1    2 1
     2    1   33 1
     3    1   34 1
     4    1   35 1
     5    2    7 ar
     6    2    3 ar
     7    3    4 ar
     8    3   36 1
     9    4    5 ar
    10    4   32 1
    11    5    6 ar
    12    5   37 1
    13    6    7 ar
    14    6    8 1
    15    7   38 1
    16    8   15 am
    17    8    9 am
    18    9   10 2
    19    9   11 1
    20   11   12 1
    21   11   19 1
    22   11   13 1
    23   13   14 1
    24   13   15 1
    25   13   17 1
    26   15   16 2
    27   17   18 1
    28   17   20 1
    29   18   19 2
    30   20   21 1
    31   20   39 1
    32   20   40 1
    33   21   22 2
    34   21   23 am
    35   23   24 1
    36   23   41 1
    37   24   29 ar
    38   24   25 ar
    39   25   26 ar
    40   25   42 1
    41   26   27 ar
    42   26   43 1
    43   27   28 ar
    44   27   31 1
    45   28   29 ar
    46   28   30 1
    47   29   44 1
    48   32   45 1
    49   32   46 1
    50   32   47 1
@<TRIPOS>MOLECULE
ZINC04218693
   39    41     0     0     0
SMALL
USER_CHARGES
1-indan-5-ylsulfonylpiperidine-4-carboxylic acid
@<TRIPOS>ATOM
      1 C1          1.7860   -3.7810    1.9767 C.ar      1 <0>        -0.0196
      2 C2          2.0823   -5.0446    1.5034 C.ar      1 <0>        -0.1290
      3 C3          1.1942   -5.7020    0.6691 C.ar      1 <0>        -0.0476
      4 C4          0.0072   -5.0911    0.3092 C.ar      1 <0>        -0.1210
      5 C5         -0.2905   -3.8271    0.7892 C.ar      1 <0>        -0.0070
      6 C6          0.5995   -3.1704    1.6170 C.ar      1 <0>        -0.6728
      7 S1          0.2191   -1.5588    2.2193 S.o2      1 <0>         2.6892
      8 O1          0.9633   -1.3869    3.4175 O.2       1 <0>        -0.9569
      9 O2         -1.1957   -1.4327    2.1764 O.2       1 <0>        -0.9570
     10 N1          0.8243   -0.4720    1.1261 N.pl3     1 <0>        -0.9911
     11 C7          0.0021   -0.0041    0.0020 C.3       1 <0>         0.1176
     12 C8         -0.0187    1.5277    0.0104 C.3       1 <0>        -0.1069
     13 C9          1.4185    2.0534   -0.0005 C.3       1 <0>        -0.1267
     14 C10         2.1487    1.5734    1.2559 C.3       1 <0>        -0.1075
     15 C11         2.1940    0.0421    1.2616 C.3       1 <0>         0.1190
     16 C12         1.4018    3.5601   -0.0266 C.2       1 <0>         0.4645
     17 O3          0.3487    4.1525   -0.0355 O.co2     1 <0>        -0.6396
     18 C13        -0.7837   -6.0062   -0.6009 C.3       1 <0>        -0.0833
     19 C14        -0.1616   -7.4054   -0.4065 C.3       1 <0>        -0.1207
     20 C15         1.2815   -7.0692    0.0254 C.3       1 <0>        -0.0894
     21 H1          2.4808   -3.2710    2.6276 H         1 <0>         0.1421
     22 H2          3.0098   -5.5210    1.7847 H         1 <0>         0.1297
     23 H3         -1.2195   -3.3511    0.5121 H         1 <0>         0.1377
     24 H4         -1.0139   -0.3839    0.1095 H         1 <0>         0.0873
     25 H5          0.4273   -0.3586   -0.9369 H         1 <0>         0.0655
     26 H6         -0.5451    1.8893   -0.8729 H         1 <0>         0.0752
     27 H7         -0.5281    1.8797    0.9075 H         1 <0>         0.0675
     28 H8          1.9348    1.6808   -0.8852 H         1 <0>         0.0694
     29 H9          1.6189    1.9249    2.1413 H         1 <0>         0.0616
     30 H10         3.1649    1.9674    1.2591 H         1 <0>         0.0830
     31 H11         2.6242   -0.3072    2.2002 H         1 <0>         0.0882
     32 H12         2.8003   -0.3086    0.4265 H         1 <0>         0.0677
     33 H13        -1.8337   -6.0152   -0.3085 H         1 <0>         0.0790
     34 H14        -0.6820   -5.6879   -1.6384 H         1 <0>         0.0836
     35 H15        -0.6824   -7.9555    0.3772 H         1 <0>         0.0740
     36 H16        -0.1657   -7.9646   -1.3422 H         1 <0>         0.0796
     37 H17         1.9386   -7.0368   -0.8436 H         1 <0>         0.0868
     38 H18         1.6416   -7.8040    0.7456 H         1 <0>         0.0800
     39 O4          2.5567    4.2440   -0.0399 O.co2     1 <0>        -0.7721
@<TRIPOS>BOND
     1    1    6 ar
     2    1    2 ar
     3    1   21 1
     4    2    3 ar
     5    2   22 1
     6    3   20 1
     7    3    4 ar
     8    4    5 ar
     9    4   18 1
    10    5    6 ar
    11    5   23 1
    12    6    7 1
    13    7    8 2
    14    7    9 2
    15    7   10 1
    16   10   15 1
    17   10   11 1
    18   11   12 1
    19   11   24 1
    20   11   25 1
    21   12   13 1
    22   12   26 1
    23   12   27 1
    24   13   14 1
    25   13   16 1
    26   13   28 1
    27   14   15 1
    28   14   29 1
    29   14   30 1
    30   15   31 1
    31   15   32 1
    32   16   17 2
    33   16   39 1
    34   18   19 1
    35   18   33 1
    36   18   34 1
    37   19   20 1
    38   19   35 1
    39   19   36 1
    40   20   37 1
    41   20   38 1
@<TRIPOS>MOLECULE
ZINC36291277
   35    37     0     0     0
SMALL
USER_CHARGES

@<TRIPOS>ATOM
      1 C1         -0.0187    1.5258    0.0104 C.3       1 <0>        -0.1446
      2 C2          0.0021   -0.0041    0.0020 C.3       1 <0>        -0.0252
      3 C3          0.7309   -0.5033    1.2229 C.2       1 <0>         0.0201
      4 N1          0.2376   -0.7914    2.3991 N.2       1 <0>        -0.4926
      5 C4          1.0111   -1.2249    3.3841 C.2       1 <0>         0.0639
      6 C5          2.3448   -1.3527    3.1025 C.2       1 <0>        -0.0858
      7 S1          2.3725   -0.8299    1.3955 S.3       1 <0>         0.0909
      8 C6          3.4753   -1.8123    3.9866 C.3       1 <0>        -0.1206
      9 C7          3.6352   -3.3057    3.8620 C.2       1 <0>         0.4996
     10 O1          2.8993   -3.9380    3.1237 O.co2     1 <0>        -0.6767
     11 O2          4.5004   -3.8814    4.4995 O.co2     1 <0>        -0.6887
     12 C8          0.4607   -1.5539    4.7221 C.ar      1 <0>         0.0038
     13 C9          1.0047   -2.6016    5.4627 C.ar      1 <0>        -0.0914
     14 C10         0.4904   -2.9068    6.7060 C.ar      1 <0>        -0.1114
     15 C11        -0.5677   -2.1728    7.2242 C.ar      1 <0>         0.0458
     16 C12        -1.1128   -1.1246    6.4904 C.ar      1 <0>         0.0380
     17 C13        -0.5973   -0.8126    5.2432 C.ar      1 <0>        -0.0867
     18 O3         -2.1454   -0.3897    6.9871 O.3       1 <0>        -0.3093
     19 C14        -2.8763   -0.9611    8.0775 C.3       1 <0>         0.0214
     20 C15        -1.8683   -1.5036    9.0996 C.3       1 <0>         0.0208
     21 O4         -1.0618   -2.4934    8.4519 O.3       1 <0>        -0.3081
     22 H1          1.0039    1.9031    0.0027 H         1 <0>         0.0566
     23 H2         -0.5459    1.8868   -0.8726 H         1 <0>         0.0631
     24 H3         -0.5289    1.8773    0.9072 H         1 <0>         0.0595
     25 H4         -1.0205   -0.3814    0.0098 H         1 <0>         0.0898
     26 H5          0.5123   -0.3556   -0.8948 H         1 <0>         0.0843
     27 H6          4.3989   -1.3212    3.6803 H         1 <0>         0.0806
     28 H7          3.2537   -1.5558    5.0226 H         1 <0>         0.0917
     29 H8          1.8283   -3.1747    5.0634 H         1 <0>         0.1561
     30 H9          0.9128   -3.7194    7.2783 H         1 <0>         0.1372
     31 H10        -1.0179    0.0028    4.6734 H         1 <0>         0.1349
     32 H11        -3.4978   -0.1968    8.5441 H         1 <0>         0.1171
     33 H12        -3.5042   -1.7743    7.7132 H         1 <0>         0.0742
     34 H13        -1.2359   -0.6917    9.4588 H         1 <0>         0.0744
     35 H14        -2.4005   -1.9539    9.9375 H         1 <0>         0.1174
@<TRIPOS>BOND
     1    1    2 1
     2    1   22 1
     3    1   23 1
     4    1   24 1
     5    2    3 1
     6    2   25 1
     7    2   26 1
     8    3    7 1
     9    3    4 2
    10    4    5 1
    11    5    6 2
    12    5   12 1
    13    6    7 1
    14    6    8 1
    15    8    9 1
    16    8   27 1
    17    8   28 1
    18    9   10 2
    19    9   11 1
    20   12   17 ar
    21   12   13 ar
    22   13   14 ar
    23   13   29 1
    24   14   15 ar
    25   14   30 1
    26   15   21 1
    27   15   16 ar
    28   16   17 ar
    29   16   18 1
    30   17   31 1
    31   18   19 1
    32   19   20 1
    33   19   32 1
    34   19   33 1
    35   20   21 1
    36   20   34 1
    37   20   35 1
@<TRIPOS>MOLECULE
ZINC44593379
   38    41     0     0     0
SMALL
USER_CHARGES

@<TRIPOS>ATOM
      1 C1          0.9639   -3.0280    2.8194 C.2       1 <0>        -0.1198
      2 C2          0.8241   -2.6361    4.1065 C.2       1 <0>        -0.1889
      3 S1         -0.4290   -1.3700    3.9715 S.3       1 <0>        -0.0054
      4 C3         -0.6728   -1.4607    2.2172 C.2       1 <0>        -0.1453
      5 C4          0.1972   -2.4291    1.8211 C.2       1 <0>        -0.1004
      6 C5          0.3019   -2.8079    0.3449 C.3       1 <0>         0.0745
      7 H1          0.2760   -3.8924    0.2393 H         1 <0>         0.1364
      8 N1         -0.8452   -2.2125   -0.3539 N.am      1 <0>        -0.5897
      9 C6         -1.1836   -0.8041   -0.1007 C.3       1 <0>         0.1397
     10 C7         -1.6123   -0.6674    1.3685 C.3       1 <0>        -0.0521
     11 C8         -1.5767   -2.9469   -1.2153 C.2       1 <0>         0.7325
     12 O1         -2.6155   -2.5018   -1.6637 O.2       1 <0>        -0.6068
     13 N2         -1.1567   -4.1746   -1.5797 N.am      1 <0>        -0.6370
     14 C9         -0.0238   -4.9272   -1.0017 C.3       1 <0>         0.0984
     15 C10         0.0312   -6.2654   -1.8025 C.3       1 <0>        -0.1130
     16 H2          0.9791   -6.8031   -1.7847 H         1 <0>         0.1147
     17 C11        -1.2218   -7.0526   -1.3061 C.3       1 <0>        -0.1193
     18 C12        -2.4192   -6.2324   -1.8403 C.3       1 <0>        -0.1354
     19 C13        -1.7490   -5.0399   -2.6401 C.3       1 <0>         0.1490
     20 H3         -2.3838   -4.5313   -3.3657 H         1 <0>         0.1163
     21 C14        -0.4626   -5.7488   -3.2021 C.3       1 <0>        -0.1357
     22 C15         1.5867   -2.2698   -0.2302 C.2       1 <0>         0.4978
     23 O2          2.6546   -2.7517    0.1072 O.co2     1 <0>        -0.6874
     24 O3          1.5583   -1.3524   -1.0328 O.co2     1 <0>        -0.6747
     25 H4          1.6728   -3.8020    2.5646 H         1 <0>         0.1351
     26 H5          1.3365   -2.9953    4.9867 H         1 <0>         0.1818
     27 H6         -0.3120   -0.1772   -0.2889 H         1 <0>         0.0899
     28 H7         -2.0029   -0.5002   -0.7522 H         1 <0>         0.0920
     29 H8         -2.6261   -1.0487    1.4906 H         1 <0>         0.0793
     30 H9         -1.5754    0.3811    1.6641 H         1 <0>         0.0845
     31 H10         0.9046   -4.3710   -1.1309 H         1 <0>         0.0863
     32 H11        -0.2022   -5.1262    0.0550 H         1 <0>         0.0722
     33 H12        -1.2311   -8.0588   -1.7252 H         1 <0>         0.0658
     34 H13        -1.2413   -7.0915   -0.2170 H         1 <0>         0.0650
     35 H14        -3.0287   -6.8401   -2.5091 H         1 <0>         0.0694
     36 H15        -3.0209   -5.8547   -1.0136 H         1 <0>         0.0676
     37 H16         0.2371   -5.0440   -3.6512 H         1 <0>         0.0798
     38 H17        -0.7072   -6.5666   -3.8800 H         1 <0>         0.0831
@<TRIPOS>BOND
     1    1    5 1
     2    1    2 2
     3    1   25 1
     4    2    3 1
     5    2   26 1
     6    3    4 1
     7    4   10 1
     8    4    5 2
     9    5    6 1
    10    6    7 1
    11    6    8 1
    12    6   22 1
    13    8    9 1
    14    8   11 am
    15    9   10 1
    16    9   27 1
    17    9   28 1
    18   10   29 1
    19   10   30 1
    20   11   12 2
    21   11   13 am
    22   13   19 1
    23   13   14 1
    24   14   15 1
    25   14   31 1
    26   14   32 1
    27   15   16 1
    28   15   21 1
    29   15   17 1
    30   17   18 1
    31   17   33 1
    32   17   34 1
    33   18   19 1
    34   18   35 1
    35   18   36 1
    36   19   20 1
    37   19   21 1
    38   21   37 1
    39   21   38 1
    40   22   23 2
    41   22   24 1
@<TRIPOS>MOLECULE
ZINC54554169
   32    34     0     0     0
SMALL
USER_CHARGES

@<TRIPOS>ATOM
      1 C1         -0.0184    1.5028    0.0103 C.3       1 <0>        -0.0503
      2 C2          0.0021   -0.0041    0.0020 C.2       1 <0>         0.0408
      3 N1          0.0098   -0.8454   -1.0125 N.2       1 <0>        -0.2782
      4 N2          0.0273   -2.0958   -0.8484 N.2       1 <0>        -0.2510
      5 C3          0.0392   -2.6423    0.3603 C.2       1 <0>        -0.0021
      6 S1          0.0308   -1.1618    1.3676 S.3       1 <0>        -0.0433
      7 S2          0.0640   -4.3382    0.8376 S.3       1 <0>         0.3290
      8 C4          0.0710   -5.2116   -0.6926 C.ar      1 <0>         0.0878
      9 C5          0.0845   -6.6194   -0.6980 C.ar      1 <0>        -0.1614
     10 C6          0.0947   -7.2798   -1.9312 C.ar      1 <0>        -0.0356
     11 C7          0.0879   -6.5251   -3.0965 C.ar      1 <0>        -0.1416
     12 C8          0.0680   -5.1481   -3.0142 C.ar      1 <0>         0.1369
     13 N3          0.0581   -4.5444   -1.8325 N.ar      1 <0>        -0.4528
     14 C9          0.0415   -4.2694   -4.2395 C.3       1 <0>        -0.0594
     15 C10         0.4849   -5.0531   -5.4726 C.3       1 <0>        -0.1176
     16 C11        -0.3363   -6.3457   -5.5470 C.3       1 <0>        -0.1191
     17 C12         0.1069   -7.2629   -4.4088 C.3       1 <0>        -0.0712
     18 C13         0.0882   -7.3771    0.5618 C.2       1 <0>         0.5240
     19 O1          0.1000   -8.6005    0.5400 O.co2     1 <0>        -0.6660
     20 O2          0.0796   -6.7843    1.6323 O.co2     1 <0>        -0.6510
     21 H1          1.0042    1.8801    0.0026 H         1 <0>         0.0877
     22 H2         -0.5455    1.8639   -0.8728 H         1 <0>         0.0932
     23 H3         -0.5286    1.8543    0.9071 H         1 <0>         0.0839
     24 H4          0.1079   -8.3588   -1.9760 H         1 <0>         0.1432
     25 H5         -0.9720   -3.8991   -4.3943 H         1 <0>         0.0777
     26 H6          0.7133   -3.4241   -4.0902 H         1 <0>         0.0832
     27 H7          0.3109   -4.4565   -6.3681 H         1 <0>         0.0685
     28 H8          1.5443   -5.2963   -5.3908 H         1 <0>         0.0649
     29 H9         -1.3961   -6.1141   -5.4406 H         1 <0>         0.0649
     30 H10        -0.1615   -6.8372   -6.5040 H         1 <0>         0.0663
     31 H11         1.1180   -7.6185   -4.6067 H         1 <0>         0.0743
     32 H12        -0.5688   -8.1163   -4.3511 H         1 <0>         0.0742
@<TRIPOS>BOND
     1    1    2 1
     2    1   21 1
     3    1   22 1
     4    1   23 1
     5    2    6 1
     6    2    3 2
     7    3    4 1
     8    4    5 2
     9    5    6 1
    10    5    7 1
    11    7    8 1
    12    8   13 ar
    13    8    9 ar
    14    9   10 ar
    15    9   18 1
    16   10   11 ar
    17   10   24 1
    18   11   17 1
    19   11   12 ar
    20   12   13 ar
    21   12   14 1
    22   14   15 1
    23   14   25 1
    24   14   26 1
    25   15   16 1
    26   15   27 1
    27   15   28 1
    28   16   17 1
    29   16   29 1
    30   16   30 1
    31   17   31 1
    32   17   32 1
    33   18   19 2
    34   18   20 1
@<TRIPOS>MOLECULE
ZINC62846657
   46    47     0     0     0
SMALL
USER_CHARGES

@<TRIPOS>ATOM
      1 C1          1.3941   -2.2789    1.2628 C.3       1 <0>        -0.1435
      2 C2          0.3522   -3.3900    1.1181 C.3       1 <0>        -0.1378
      3 C3         -1.0027   -2.7753    0.7613 C.3       1 <0>        -0.0812
      4 C4         -2.0446   -3.8863    0.6166 C.3       1 <0>        -0.1227
      5 C5         -1.6122   -4.8496   -0.4911 C.3       1 <0>        -0.1076
      6 C6         -1.4612   -4.0761   -1.8048 C.3       1 <0>         0.1393
      7 N1         -2.7159   -3.3633   -2.0808 N.am      1 <0>        -0.6321
      8 C7         -3.2690   -2.4798   -1.0453 C.3       1 <0>         0.0765
      9 C8         -3.3997   -3.2712    0.2598 C.3       1 <0>        -0.1096
     10 C9         -3.3474   -3.5168   -3.2615 C.2       1 <0>         0.7183
     11 O1         -2.7024   -3.6781   -4.2795 O.2       1 <0>        -0.5864
     12 N2         -4.6939   -3.4913   -3.3139 N.am      1 <0>        -0.6266
     13 C10        -5.4654   -3.0923   -2.1342 C.3       1 <0>         0.0446
     14 C11        -5.3860   -3.8625   -4.5506 C.3       1 <0>         0.1482
     15 H1         -4.6465   -3.9737   -5.3436 H         1 <0>         0.1159
     16 C12        -6.0817   -5.2062   -4.3379 C.3       1 <0>        -0.1378
     17 C13        -7.5260   -4.9873   -3.8070 C.3       1 <0>        -0.0626
     18 S1         -8.0078   -3.5214   -4.8216 S.3       1 <0>        -0.3082
     19 C14        -6.3547   -2.7269   -4.9344 C.3       1 <0>        -0.0703
     20 C15        -2.1613   -4.6377    1.9177 C.2       1 <0>         0.5040
     21 O2         -1.4748   -4.3145    2.8721 O.co2     1 <0>        -0.6873
     22 O3         -2.9422   -5.5689    2.0160 O.co2     1 <0>        -0.6990
     23 H2          2.3593   -2.7169    1.5170 H         1 <0>         0.0430
     24 H3          1.4783   -1.7350    0.3220 H         1 <0>         0.0386
     25 H4          1.0869   -1.5934    2.0526 H         1 <0>         0.0480
     26 H5          0.6594   -4.0755    0.3283 H         1 <0>         0.0435
     27 H6          0.2680   -3.9339    2.0589 H         1 <0>         0.1037
     28 H7         -1.3099   -2.0897    1.5511 H         1 <0>         0.0538
     29 H8         -0.9185   -2.2314   -0.1795 H         1 <0>         0.0393
     30 H9         -0.6582   -5.3050   -0.2254 H         1 <0>         0.0695
     31 H10        -2.3661   -5.6275   -0.6116 H         1 <0>         0.0637
     32 H11        -0.6455   -3.3587   -1.7147 H         1 <0>         0.0638
     33 H12        -1.2502   -4.7723   -2.6166 H         1 <0>         0.0739
     34 H13        -2.6008   -1.6321   -0.8933 H         1 <0>         0.0637
     35 H14        -4.2508   -2.1226   -1.3560 H         1 <0>         0.1027
     36 H15        -4.1369   -4.0639    0.1323 H         1 <0>         0.0697
     37 H16        -3.7180   -2.6031    1.0601 H         1 <0>         0.0658
     38 H17        -5.5750   -2.0079   -2.1213 H         1 <0>         0.0583
     39 H18        -6.4509   -3.5567   -2.1704 H         1 <0>         0.0700
     40 H19        -4.9444   -3.4156   -1.2329 H         1 <0>         0.1060
     41 H20        -6.1233   -5.7446   -5.2848 H         1 <0>         0.0880
     42 H21        -5.5168   -5.7943   -3.6146 H         1 <0>         0.0904
     43 H22        -8.1626   -5.8457   -4.0216 H         1 <0>         0.1098
     44 H23        -7.5267   -4.7516   -2.7428 H         1 <0>         0.0955
     45 H24        -6.2774   -1.9001   -4.2283 H         1 <0>         0.0988
     46 H25        -6.1628   -2.3848   -5.9514 H         1 <0>         0.1066
@<TRIPOS>BOND
     1    1    2 1
     2    1   23 1
     3    1   24 1
     4    1   25 1
     5    2    3 1
     6    2   26 1
     7    2   27 1
     8    3    4 1
     9    3   28 1
    10    3   29 1
    11    4    9 1
    12    4    5 1
    13    4   20 1
    14    5    6 1
    15    5   30 1
    16    5   31 1
    17    6    7 1
    18    6   32 1
    19    6   33 1
    20    7    8 1
    21    7   10 am
    22    8    9 1
    23    8   34 1
    24    8   35 1
    25    9   36 1
    26    9   37 1
    27   10   11 2
    28   10   12 am
    29   12   13 1
    30   12   14 1
    31   13   38 1
    32   13   39 1
    33   13   40 1
    34   14   15 1
    35   14   19 1
    36   14   16 1
    37   16   17 1
    38   16   41 1
    39   16   42 1
    40   17   18 1
    41   17   43 1
    42   17   44 1
    43   18   19 1
    44   19   45 1
    45   19   46 1
    46   20   21 2
    47   20   22 1
@<TRIPOS>MOLECULE
ZINC01817764
   35    38     0     0     0
SMALL
USER_CHARGES
amino-oxo-N-thiazol-2-yl-BLAHcarboxamide
@<TRIPOS>ATOM
      1 C1         -3.7842   -0.6610    0.0164 C.2       1 <0>         0.0573
      2 C2         -4.8451    0.1824    0.0260 C.2       1 <0>        -0.2301
      3 S1         -4.0124    1.7634    0.0307 S.3       1 <0>         0.0552
      4 C3         -2.3837    1.1610    0.0197 C.2       1 <0>         0.3090
      5 N1         -2.5707   -0.1447    0.0076 N.2       1 <0>        -0.5140
      6 N2         -1.1907    1.8716    0.0179 N.am      1 <0>        -0.6164
      7 C4         -0.0144    1.2137    0.0087 C.2       1 <0>         0.6214
      8 O1          0.0021   -0.0041    0.0020 O.2       1 <0>        -0.4867
      9 C5          1.2027    1.9387    0.0010 C.2       1 <0>        -0.3604
     10 C6          2.4889    1.4463   -0.0139 C.2       1 <0>         0.3231
     11 C7          3.5919    2.3965   -0.0191 C.ar      1 <0>        -0.2062
     12 C8          4.9791    2.1357   -0.0315 C.ar      1 <0>         0.0535
     13 C9          5.8663    3.2100   -0.0346 C.ar      1 <0>        -0.2365
     14 C10         5.3858    4.5274   -0.0307 C.ar      1 <0>         0.2409
     15 N3          4.0849    4.7456   -0.0144 N.ar      1 <0>        -0.4614
     16 C11         3.2107    3.7602   -0.0092 C.ar      1 <0>         0.1631
     17 S2          1.4350    3.7052    0.0004 S.3       1 <0>         0.1323
     18 C12         6.3215    5.7058   -0.0515 C.3       1 <0>        -0.0812
     19 C13         7.7010    5.3259    0.4792 C.3       1 <0>        -0.1165
     20 C14         8.2379    4.1253   -0.3111 C.3       1 <0>        -0.1548
     21 C15         7.3175    2.9543   -0.0372 C.2       1 <0>         0.4073
     22 O2          7.7595    1.8445    0.1732 O.2       1 <0>        -0.4456
     23 N4          2.7271    0.0801   -0.0234 N.pl3     1 <0>        -0.8155
     24 H1         -3.9293   -1.7312    0.0109 H         1 <0>         0.1740
     25 H2         -5.9020   -0.0397    0.0293 H         1 <0>         0.2007
     26 H3         -1.2038    2.8415    0.0232 H         1 <0>         0.4253
     27 H4          5.3467    1.1202   -0.0385 H         1 <0>         0.1503
     28 H5          6.4195    6.0659   -1.0757 H         1 <0>         0.1058
     29 H6          5.9074    6.5016    0.5676 H         1 <0>         0.1047
     30 H7          7.6248    5.0621    1.5340 H         1 <0>         0.0758
     31 H8          8.3805    6.1703    0.3637 H         1 <0>         0.0956
     32 H9          9.1699    3.9196   -0.0126 H         1 <0>         0.0916
     33 H10         8.2403    4.3532   -1.3770 H         1 <0>         0.1081
     34 H11         1.9830   -0.5420   -0.0199 H         1 <0>         0.4270
     35 H12         3.6380   -0.2533   -0.0335 H         1 <0>         0.4032
@<TRIPOS>BOND
     1    1    5 1
     2    1    2 2
     3    1   24 1
     4    2    3 1
     5    2   25 1
     6    3    4 1
     7    4    5 2
     8    4    6 1
     9    6    7 am
    10    6   26 1
    11    7    8 2
    12    7    9 1
    13    9   17 1
    14    9   10 2
    15   10   11 1
    16   10   23 1
    17   11   16 ar
    18   11   12 ar
    19   12   13 ar
    20   12   27 1
    21   13   21 1
    22   13   14 ar
    23   14   15 ar
    24   14   18 1
    25   15   16 ar
    26   16   17 1
    27   18   19 1
    28   18   28 1
    29   18   29 1
    30   19   20 1
    31   19   30 1
    32   19   31 1
    33   20   21 1
    34   20   32 1
    35   20   33 1
    36   21   22 2
    37   23   34 1
    38   23   35 1
@<TRIPOS>MOLECULE
ZINC17051822
   35    37     0     0     0
SMALL
USER_CHARGES
5-[[[4-(p-tolyl)thiazol-2-yl]amino]methylene]-2-thioxo-hexahydropyrimidine-4,6-dione
@<TRIPOS>ATOM
      1 C1         -0.0940    5.7501   -0.1122 C.3       1 <0>        -0.1197
      2 C2         -0.0708    4.2434   -0.0952 C.ar      1 <0>        -0.0722
      3 C3          1.1390    3.5727   -0.1110 C.ar      1 <0>        -0.1238
      4 C4          1.1663    2.1930   -0.0952 C.ar      1 <0>        -0.0777
      5 C5         -0.0281    1.4753   -0.0637 C.ar      1 <0>        -0.0422
      6 C6         -1.2442    2.1563   -0.0537 C.ar      1 <0>        -0.0950
      7 C7         -1.2593    3.5363   -0.0645 C.ar      1 <0>        -0.1216
      8 C8         -0.0053   -0.0076   -0.0471 C.2       1 <0>         0.1259
      9 C9         -1.1750   -0.7157   -0.0162 C.2       1 <0>        -0.1902
     10 S1         -0.5483   -2.3903   -0.0090 S.3       1 <0>         0.0645
     11 C10         1.1905   -1.9779   -0.0475 C.2       1 <0>         0.2910
     12 N1          1.1476   -0.6584   -0.0674 N.2       1 <0>        -0.5040
     13 N2          2.2929   -2.8209   -0.0588 N.pl3     1 <0>        -0.5462
     14 C11         2.1191   -4.1602   -0.0400 C.2       1 <0>         0.3376
     15 C12         3.2102   -5.0003   -0.1588 C.2       1 <0>        -0.3907
     16 C13         4.5873   -4.4749   -0.1783 C.2       1 <0>         0.5729
     17 O1          4.8017   -3.2804   -0.0899 O.2       1 <0>        -0.4975
     18 N3          5.6037   -5.3546   -0.2921 N.am      1 <0>        -0.6121
     19 C14         5.3815   -6.6723   -0.3962 C.2       1 <0>         0.5472
     20 S2          6.7328   -7.7128   -0.5445 S.2       1 <0>        -0.5030
     21 N4          4.1575   -7.2186   -0.3907 N.am      1 <0>        -0.6126
     22 C15         3.0474   -6.4606   -0.2777 C.2       1 <0>         0.5792
     23 O2          1.9417   -6.9685   -0.2736 O.2       1 <0>        -0.4789
     24 H1         -0.1195    6.1015   -1.1436 H         1 <0>         0.0739
     25 H2         -0.9793    6.1058    0.4149 H         1 <0>         0.0689
     26 H3          0.8001    6.1328    0.3800 H         1 <0>         0.0687
     27 H4          2.0639    4.1298   -0.1354 H         1 <0>         0.1266
     28 H5          2.1114    1.6704   -0.1075 H         1 <0>         0.1323
     29 H6         -2.1728    1.6052   -0.0335 H         1 <0>         0.1264
     30 H7         -2.2009    4.0651   -0.0526 H         1 <0>         0.1282
     31 H8         -2.1951   -0.3613   -0.0010 H         1 <0>         0.2107
     32 H9          3.1882   -2.4482   -0.0802 H         1 <0>         0.4450
     33 H10         1.1277   -4.5746    0.0679 H         1 <0>         0.1885
     34 H11         6.5161   -5.0256   -0.3025 H         1 <0>         0.4495
     35 H12         4.0679   -8.1813   -0.4696 H         1 <0>         0.4504
@<TRIPOS>BOND
     1    1    2 1
     2    1   24 1
     3    1   25 1
     4    1   26 1
     5    2    7 ar
     6    2    3 ar
     7    3    4 ar
     8    3   27 1
     9    4    5 ar
    10    4   28 1
    11    5    6 ar
    12    5    8 1
    13    6    7 ar
    14    6   29 1
    15    7   30 1
    16    8   12 1
    17    8    9 2
    18    9   10 1
    19    9   31 1
    20   10   11 1
    21   11   12 2
    22   11   13 1
    23   13   14 1
    24   13   32 1
    25   14   15 2
    26   14   33 1
    27   15   22 1
    28   15   16 1
    29   16   17 2
    30   16   18 am
    31   18   19 1
    32   18   34 1
    33   19   20 2
    34   19   21 1
    35   21   22 am
    36   21   35 1
    37   22   23 2
@<TRIPOS>MOLECULE
ZINC40346123
   32    33     0     0     0
SMALL
USER_CHARGES

@<TRIPOS>ATOM
      1 C1          0.0639    1.4722    0.0462 C.3       1 <0>         0.0718
      2 N1         -0.0127    0.0097    0.0060 N.pl3     1 <0>        -0.9997
      3 C2          0.0411   -0.7611    1.2506 C.3       1 <0>         0.1624
      4 C3         -1.3362   -0.8311    1.8581 C.ar      1 <0>        -0.0721
      5 C4         -2.4204   -0.3132    1.1744 C.ar      1 <0>        -0.1001
      6 C5         -3.6838   -0.3777    1.7313 C.ar      1 <0>        -0.0984
      7 C6         -3.8639   -0.9602    2.9723 C.ar      1 <0>        -0.1148
      8 C7         -2.7806   -1.4781    3.6565 C.ar      1 <0>        -0.0859
      9 C8         -1.5167   -1.4184    3.0971 C.ar      1 <0>        -0.0882
     10 Br1        -0.0350   -2.1333    4.0297 Br        1 <0>        -0.0485
     11 S1         -0.1600   -0.7721   -1.4464 S.o2      1 <0>         2.7159
     12 O1         -0.8733   -1.9740   -1.1901 O.2       1 <0>        -0.9517
     13 O2         -0.6101    0.1956   -2.3847 O.2       1 <0>        -0.9547
     14 C9          1.4607   -1.2459   -1.9498 C.2       1 <0>        -0.8536
     15 C10         1.9121   -2.5129   -2.0911 C.2       1 <0>         0.2064
     16 N2          3.1997   -2.4515   -2.4906 N.pl3     1 <0>        -0.4498
     17 H1          3.7772   -3.2098   -2.6705 H         1 <0>         0.4479
     18 N3          3.5564   -1.1014   -2.6001 N.2       1 <0>        -0.3466
     19 C11         2.5112   -0.3749   -2.2814 C.2       1 <0>         0.4182
     20 N4          2.4542    1.0238   -2.2708 N.pl3     1 <0>        -0.8392
     21 H2          1.1064    1.7834   -0.0199 H         1 <0>         0.0601
     22 H3         -0.4935    1.8884   -0.7929 H         1 <0>         0.0884
     23 H4         -0.3643    1.8328    0.9815 H         1 <0>         0.0847
     24 H5          0.3963   -1.7696    1.0384 H         1 <0>         0.1011
     25 H6          0.7222   -0.2756    1.9495 H         1 <0>         0.1028
     26 H7         -2.2802    0.1421    0.2052 H         1 <0>         0.1222
     27 H8         -4.5306    0.0272    1.1970 H         1 <0>         0.1317
     28 H9         -4.8512   -1.0100    3.4072 H         1 <0>         0.1334
     29 H10        -2.9214   -1.9330    4.6258 H         1 <0>         0.1348
     30 H11         1.3431   -3.4139   -1.9153 H         1 <0>         0.1985
     31 H12         1.6332    1.4738   -2.0173 H         1 <0>         0.4105
     32 H13         3.2358    1.5429   -2.5169 H         1 <0>         0.4125
@<TRIPOS>BOND
     1    1    2 1
     2    1   21 1
     3    1   22 1
     4    1   23 1
     5    2    3 1
     6    2   11 1
     7    3    4 1
     8    3   24 1
     9    3   25 1
    10    4    9 ar
    11    4    5 ar
    12    5    6 ar
    13    5   26 1
    14    6    7 ar
    15    6   27 1
    16    7    8 ar
    17    7   28 1
    18    8    9 ar
    19    8   29 1
    20    9   10 1
    21   11   12 2
    22   11   13 2
    23   11   14 1
    24   14   19 1
    25   14   15 2
    26   15   16 1
    27   15   30 1
    28   16   17 1
    29   16   18 1
    30   18   19 2
    31   19   20 1
    32   20   31 1
    33   20   32 1
@<TRIPOS>MOLECULE
ZINC51124266
   40    42     0     0     0
SMALL
USER_CHARGES

@<TRIPOS>ATOM
      1 C1          0.2587    0.9819    1.0051 C.ar      1 <0>         0.0318
      2 C2          1.3472    1.8112    0.7949 C.ar      1 <0>        -0.2186
      3 C3          2.2518    1.5071   -0.2076 C.ar      1 <0>         0.2140
      4 N1          2.0962    0.4409   -0.9680 N.ar      1 <0>        -0.5146
      5 C4          1.0738   -0.3852   -0.8100 C.ar      1 <0>         0.4642
      6 C5          0.1131   -0.1441    0.1871 C.ar      1 <0>        -0.2548
      7 C6         -1.0275   -1.0607    0.3676 C.2       1 <0>         0.5780
      8 O1         -0.8423   -2.2619    0.4047 O.2       1 <0>        -0.5372
      9 N2         -2.2755   -0.5671    0.4917 N.am      1 <0>        -0.6045
     10 C7         -2.5467    0.8698    0.3259 C.3       1 <0>         0.0644
     11 C8         -3.6988    1.0389   -0.6703 C.3       1 <0>         0.0487
     12 O2         -4.8013    0.2224   -0.2652 O.3       1 <0>        -0.3659
     13 C9         -4.5094   -1.1744   -0.2407 C.3       1 <0>         0.0855
     14 H1         -4.1481   -1.4788   -1.2231 H         1 <0>         0.0593
     15 C10        -3.4193   -1.4489    0.7924 C.3       1 <0>         0.1151
     16 H2         -3.1117   -2.4934    0.7435 H         1 <0>         0.1118
     17 C11        -3.9413   -1.0994    2.1885 C.3       1 <0>        -0.1233
     18 C12        -5.1881   -1.9288    2.4974 C.3       1 <0>        -0.1177
     19 C13        -6.2748   -1.6108    1.4676 C.3       1 <0>        -0.1194
     20 C14        -5.7624   -1.9754    0.0978 C.3       1 <0>        -0.1095
     21 N3          0.9505   -1.4916   -1.6307 N.pl3     1 <0>        -0.5471
     22 N4          1.9501   -1.8071   -2.5066 N.3       1 <0>        -0.5951
     23 Br1         1.5958    3.3477    1.8687 Br        1 <0>        -0.0302
     24 H3         -0.4580    1.1963    1.7840 H         1 <0>         0.1481
     25 H4          3.1004    2.1550   -0.3703 H         1 <0>         0.1723
     26 H5         -2.8271    1.3024    1.2863 H         1 <0>         0.0842
     27 H6         -1.6561    1.3685   -0.0567 H         1 <0>         0.0974
     28 H7         -4.0092    2.0835   -0.6932 H         1 <0>         0.1114
     29 H8         -3.3679    0.7360   -1.6637 H         1 <0>         0.0564
     30 H9         -3.1702   -1.3149    2.9282 H         1 <0>         0.0648
     31 H10        -4.1925   -0.0394    2.2266 H         1 <0>         0.0736
     32 H11        -4.9407   -2.9893    2.4497 H         1 <0>         0.0641
     33 H12        -5.5501   -1.6836    3.4959 H         1 <0>         0.0686
     34 H13        -7.1695   -2.1920    1.6909 H         1 <0>         0.0673
     35 H14        -6.5115   -0.5474    1.5045 H         1 <0>         0.0732
     36 H15        -6.5417   -1.7538   -0.6314 H         1 <0>         0.0753
     37 H16        -5.5310   -3.0401    0.0661 H         1 <0>         0.0804
     38 H17         0.1541   -2.0435   -1.5843 H         1 <0>         0.4190
     39 H18         2.8303   -1.9182   -2.0260 H         1 <0>         0.3486
     40 H19         1.7197   -2.6351   -3.0352 H         1 <0>         0.3605
@<TRIPOS>BOND
     1    1    6 ar
     2    1    2 ar
     3    1   24 1
     4    2    3 ar
     5    2   23 1
     6    3    4 ar
     7    3   25 1
     8    4    5 ar
     9    5    6 ar
    10    5   21 1
    11    6    7 1
    12    7    8 2
    13    7    9 am
    14    9   15 1
    15    9   10 1
    16   10   11 1
    17   10   26 1
    18   10   27 1
    19   11   12 1
    20   11   28 1
    21   11   29 1
    22   12   13 1
    23   13   14 1
    24   13   20 1
    25   13   15 1
    26   15   16 1
    27   15   17 1
    28   17   18 1
    29   17   30 1
    30   17   31 1
    31   18   19 1
    32   18   32 1
    33   18   33 1
    34   19   20 1
    35   19   34 1
    36   19   35 1
    37   20   36 1
    38   20   37 1
    39   21   22 1
    40   21   38 1
    41   22   39 1
    42   22   40 1
@<TRIPOS>MOLECULE
ZINC04116474
   43    45     0     0     0
SMALL
USER_CHARGES

@<TRIPOS>ATOM
      1 C1          0.2071    1.2282    0.2398 C.ar      1 <0>        -0.0626
      2 C2          1.4605    1.7903    0.3780 C.ar      1 <0>        -0.1823
      3 C3          2.5849    0.9764    0.4272 C.ar      1 <0>         0.2136
      4 C4          2.4481   -0.4028    0.3373 C.ar      1 <0>        -0.1844
      5 C5          1.1945   -0.9645    0.1992 C.ar      1 <0>        -0.0889
      6 C6          0.0705   -0.1507    0.1500 C.ar      1 <0>         0.0777
      7 N1         -1.2019   -0.7211    0.0097 N.am      1 <0>        -0.6649
      8 C7         -2.1517   -0.0830   -0.7026 C.2       1 <0>         0.5155
      9 O1         -1.8779    0.9342   -1.3039 O.2       1 <0>        -0.5124
     10 C8         -3.5537   -0.6334   -0.7520 C.3       1 <0>        -0.1199
     11 C9         -4.4271    0.2731   -1.6217 C.3       1 <0>        -0.0810
     12 H1         -3.9862    0.4128   -2.6087 H         1 <0>         0.1647
     13 C10        -5.8464   -0.2620   -1.7232 C.2       1 <0>         0.5285
     14 O2         -6.0945   -1.3390   -2.2218 O.2       1 <0>        -0.4829
     15 N2         -6.7933    0.5199   -1.2335 N.am      1 <0>        -0.6998
     16 C11        -6.5179    1.7477   -0.6637 C.2       1 <0>         0.3901
     17 N3         -7.3564    2.6027   -0.1504 N.2       1 <0>        -0.6449
     18 S1         -4.7405    1.8883   -0.7967 S.3       1 <0>        -0.0033
     19 N4          3.8551    1.5458    0.5667 N.pl3     1 <0>        -0.6283
     20 C12         5.0420    0.6961    0.7339 C.3       1 <0>         0.1199
     21 C13         6.0779    1.0819   -0.3268 C.3       1 <0>        -0.1378
     22 C14         6.3614    2.5830   -0.2350 C.3       1 <0>        -0.1194
     23 C15         5.0747    3.3646   -0.5097 C.3       1 <0>        -0.1380
     24 C16         4.0282    3.0046    0.5428 C.3       1 <0>         0.1200
     25 H2         -0.6676    1.8607    0.2060 H         1 <0>         0.1327
     26 H3          1.5667    2.8628    0.4474 H         1 <0>         0.1263
     27 H4          3.3223   -1.0358    0.3752 H         1 <0>         0.1267
     28 H5          1.0881   -2.0370    0.1290 H         1 <0>         0.1242
     29 H6         -1.3991   -1.5751    0.4252 H         1 <0>         0.4101
     30 H7         -3.5353   -1.6369   -1.1772 H         1 <0>         0.1265
     31 H8         -3.9639   -0.6738    0.2570 H         1 <0>         0.1148
     32 H9         -7.7149    0.2206   -1.2761 H         1 <0>         0.4103
     33 H10        -8.3059    2.4046   -0.1404 H         1 <0>         0.3527
     34 H11         5.4629    0.8478    1.7279 H         1 <0>         0.0618
     35 H12         4.7631   -0.3501    0.6087 H         1 <0>         0.0828
     36 H13         6.9996    0.5263   -0.1541 H         1 <0>         0.0729
     37 H14         5.6898    0.8448   -1.3174 H         1 <0>         0.0664
     38 H15         6.7260    2.8233    0.7638 H         1 <0>         0.0632
     39 H16         7.1164    2.8557   -0.9723 H         1 <0>         0.0644
     40 H17         5.2824    4.4338   -0.4672 H         1 <0>         0.0738
     41 H18         4.6961    3.1061   -1.4986 H         1 <0>         0.0663
     42 H19         3.0806    3.4810    0.2916 H         1 <0>         0.0834
     43 H20         4.3646    3.3487    1.5208 H         1 <0>         0.0613
@<TRIPOS>BOND
     1    1    6 ar
     2    1    2 ar
     3    1   25 1
     4    2    3 ar
     5    2   26 1
     6    3    4 ar
     7    3   19 1
     8    4    5 ar
     9    4   27 1
    10    5    6 ar
    11    5   28 1
    12    6    7 1
    13    7    8 am
    14    7   29 1
    15    8    9 2
    16    8   10 1
    17   10   11 1
    18   10   30 1
    19   10   31 1
    20   11   12 1
    21   11   18 1
    22   11   13 1
    23   13   14 2
    24   13   15 am
    25   15   16 1
    26   15   32 1
    27   16   17 2
    28   16   18 1
    29   17   33 1
    30   19   24 1
    31   19   20 1
    32   20   21 1
    33   20   34 1
    34   20   35 1
    35   21   22 1
    36   21   36 1
    37   21   37 1
    38   22   23 1
    39   22   38 1
    40   22   39 1
    41   23   24 1
    42   23   40 1
    43   23   41 1
    44   24   42 1
    45   24   43 1
@<TRIPOS>MOLECULE
ZINC02957806
   39    42     0     0     0
SMALL
USER_CHARGES
3-[1-(2-methoxyphenyl)-2-thioxo-3H-imidazol-4-yl]chromen-2-one
@<TRIPOS>ATOM
      1 C1         -2.3912    1.2541    0.0202 C.3       1 <0>         0.0277
      2 O1         -1.2023    2.0468    0.0189 O.3       1 <0>        -0.2980
      3 C2         -0.0167    1.3814    0.0096 C.ar      1 <0>         0.1732
      4 C3          0.0021   -0.0041    0.0020 C.ar      1 <0>        -0.2031
      5 C4          1.2083   -0.6792   -0.0131 C.ar      1 <0>        -0.0556
      6 C5          2.3988    0.0244   -0.0207 C.ar      1 <0>        -0.1491
      7 C6          2.3888    1.4062   -0.0137 C.ar      1 <0>        -0.0573
      8 C7          1.1821    2.0908    0.0020 C.ar      1 <0>         0.0734
      9 N1          1.1694    3.4927    0.0097 N.pl3     1 <0>        -0.3988
     10 C8          1.6310    4.3118   -1.0040 C.2       1 <0>         0.0520
     11 C9          1.4409    5.5878   -0.6187 C.2       1 <0>         0.0622
     12 N2          0.8650    5.5609    0.6495 N.pl3     1 <0>        -0.5613
     13 H1          0.6181    6.3342    1.1805 H         1 <0>         0.4458
     14 C10         0.7107    4.2714    1.0080 C.2       1 <0>         0.4799
     15 S1          0.0434    3.7164    2.4837 S.2       1 <0>        -0.5963
     16 C11         1.7859    6.7952   -1.3956 C.2       1 <0>        -0.1479
     17 C12         0.9455    7.8785   -1.4087 C.2       1 <0>         0.0173
     18 C13         1.3389    9.0506   -2.1915 C.ar      1 <0>        -0.1565
     19 C14         0.5190   10.1857   -2.2336 C.ar      1 <0>        -0.0509
     20 C15         0.8977   11.2699   -2.9733 C.ar      1 <0>        -0.1384
     21 C16         2.0895   11.2548   -3.6837 C.ar      1 <0>        -0.0564
     22 C17         2.9108   10.1473   -3.6560 C.ar      1 <0>        -0.1323
     23 C18         2.5471    9.0322   -2.9102 C.ar      1 <0>         0.1461
     24 O2          3.3488    7.9461   -2.8792 O.3       1 <0>        -0.2577
     25 C19         3.0303    6.8524   -2.1707 C.2       1 <0>         0.5240
     26 O3          3.7826    5.8958   -2.1711 O.2       1 <0>        -0.4415
     27 H2         -2.4127    0.6298   -0.8731 H         1 <0>         0.0560
     28 H3         -2.4043    0.6201    0.9068 H         1 <0>         0.0617
     29 H4         -3.2636    1.9075    0.0278 H         1 <0>         0.1021
     30 H5         -0.9259   -0.5566    0.0076 H         1 <0>         0.1402
     31 H6          1.2210   -1.7591   -0.0187 H         1 <0>         0.1354
     32 H7          3.3387   -0.5074   -0.0325 H         1 <0>         0.1376
     33 H8          3.3200    1.9531   -0.0196 H         1 <0>         0.1380
     34 H9          2.0638    3.9864   -1.9385 H         1 <0>         0.2010
     35 H10         0.0197    7.8686   -0.8528 H         1 <0>         0.1551
     36 H11        -0.4097   10.2037   -1.6826 H         1 <0>         0.1417
     37 H12         0.2650   12.1445   -3.0056 H         1 <0>         0.1391
     38 H13         2.3766   12.1190   -4.2644 H         1 <0>         0.1439
     39 H14         3.8364   10.1468   -4.2126 H         1 <0>         0.1477
@<TRIPOS>BOND
     1    1    2 1
     2    1   27 1
     3    1   28 1
     4    1   29 1
     5    2    3 1
     6    3    8 ar
     7    3    4 ar
     8    4    5 ar
     9    4   30 1
    10    5    6 ar
    11    5   31 1
    12    6    7 ar
    13    6   32 1
    14    7    8 ar
    15    7   33 1
    16    8    9 1
    17    9   14 1
    18    9   10 1
    19   10   11 2
    20   10   34 1
    21   11   12 1
    22   11   16 1
    23   12   13 1
    24   12   14 1
    25   14   15 2
    26   16   25 1
    27   16   17 2
    28   17   18 1
    29   17   35 1
    30   18   23 ar
    31   18   19 ar
    32   19   20 ar
    33   19   36 1
    34   20   21 ar
    35   20   37 1
    36   21   22 ar
    37   21   38 1
    38   22   23 ar
    39   22   39 1
    40   23   24 1
    41   24   25 1
    42   25   26 2
@<TRIPOS>MOLECULE
ZINC14021275
   39    42     0     0     0
SMALL
USER_CHARGES
1-[5-(4-chlorophenyl)thieno[3,2-e]pyrimidin-4-yl]-1,4-diazepan-5-one
@<TRIPOS>ATOM
      1 C1          0.3300    0.8666    0.5471 C.ar      1 <0>        -0.0877
      2 C2          1.5422    1.5254    0.5656 C.ar      1 <0>        -0.1142
      3 C3          2.7167    0.8253    0.3487 C.ar      1 <0>        -0.0290
      4 C4          2.6819   -0.5384    0.1121 C.ar      1 <0>        -0.1278
      5 C5          1.4751   -1.2069    0.0914 C.ar      1 <0>        -0.0429
      6 C6          0.2892   -0.5067    0.3093 C.ar      1 <0>        -0.0257
      7 C7         -1.0100   -1.2196    0.2887 C.2       1 <0>        -0.0459
      8 C8         -1.8310   -1.1881    1.3645 C.2       1 <0>        -0.1439
      9 S1         -3.2278   -2.1694    0.8512 S.3       1 <0>         0.1280
     10 C9         -2.6816   -2.6049   -0.7785 C.ar      1 <0>         0.1211
     11 C10        -1.4254   -1.9738   -0.8895 C.ar      1 <0>        -0.1621
     12 C11        -0.7540   -2.1646   -2.1265 C.ar      1 <0>         0.4098
     13 N1         -1.3286   -2.8973   -3.0672 N.ar      1 <0>        -0.5534
     14 C12        -2.5105   -3.4607   -2.8947 C.ar      1 <0>         0.3353
     15 N2         -3.1815   -3.3194   -1.7680 N.ar      1 <0>        -0.4818
     16 N3          0.4855   -1.5905   -2.3460 N.pl3     1 <0>        -0.5028
     17 C13         0.3603   -0.3504   -3.0982 C.3       1 <0>         0.0852
     18 C14         1.6461    0.4754   -2.9979 C.3       1 <0>        -0.1437
     19 C15         2.6182   -0.0253   -4.0463 C.2       1 <0>         0.5174
     20 O1          2.8833    0.6649   -5.0077 O.2       1 <0>        -0.5433
     21 N4          3.1829   -1.2288   -3.9104 N.am      1 <0>        -0.7262
     22 C16         2.8662   -2.0654   -2.7406 C.3       1 <0>         0.0958
     23 C17         1.4260   -2.5667   -2.8763 C.3       1 <0>         0.0479
     24 Cl1         4.2386    1.6601    0.3740 Cl        1 <0>        -0.0669
     25 H1         -0.5860    1.4145    0.7120 H         1 <0>         0.1324
     26 H2          1.5749    2.5891    0.7497 H         1 <0>         0.1356
     27 H3          3.6010   -1.0798   -0.0569 H         1 <0>         0.1349
     28 H4          1.4490   -2.2707   -0.0936 H         1 <0>         0.1286
     29 H5         -1.6771   -0.6864    2.3084 H         1 <0>         0.2021
     30 H6         -2.9367   -4.0500   -3.6932 H         1 <0>         0.2104
     31 H7          0.1639   -0.5834   -4.1447 H         1 <0>         0.0546
     32 H8         -0.4712    0.2299   -2.6981 H         1 <0>         0.0883
     33 H9          1.4220    1.5270   -3.1774 H         1 <0>         0.1078
     34 H10         2.0823    0.3566   -2.0061 H         1 <0>         0.1087
     35 H11         3.8025   -1.5517   -4.5832 H         1 <0>         0.4031
     36 H12         3.5479   -2.9151   -2.7030 H         1 <0>         0.1000
     37 H13         2.9670   -1.4747   -1.8301 H         1 <0>         0.0963
     38 H14         1.3190   -3.5025   -2.3276 H         1 <0>         0.0891
     39 H15         1.2050   -2.7422   -3.9292 H         1 <0>         0.0648
@<TRIPOS>BOND
     1    1    6 ar
     2    1    2 ar
     3    1   25 1
     4    2    3 ar
     5    2   26 1
     6    3    4 ar
     7    3   24 1
     8    4    5 ar
     9    4   27 1
    10    5    6 ar
    11    5   28 1
    12    6    7 1
    13    7   11 1
    14    7    8 2
    15    8    9 1
    16    8   29 1
    17    9   10 1
    18   10   15 ar
    19   10   11 ar
    20   11   12 ar
    21   12   13 ar
    22   12   16 1
    23   13   14 ar
    24   14   15 ar
    25   14   30 1
    26   16   23 1
    27   16   17 1
    28   17   18 1
    29   17   31 1
    30   17   32 1
    31   18   19 1
    32   18   33 1
    33   18   34 1
    34   19   20 2
    35   19   21 am
    36   21   22 1
    37   21   35 1
    38   22   23 1
    39   22   36 1
    40   22   37 1
    41   23   38 1
    42   23   39 1
@<TRIPOS>MOLECULE
ZINC23652454
   49    52     0     0     0
SMALL
USER_CHARGES

@<TRIPOS>ATOM
      1 C1         -0.1871    1.4243   -0.0287 C.3       1 <0>        -0.1438
      2 C2         -0.0563   -0.0996    0.0087 C.3       1 <0>         0.1556
      3 H1         -1.0407   -0.5481    0.1428 H         1 <0>         0.0586
      4 C3          0.5575   -0.5931   -1.2981 C.2       1 <0>        -0.1204
      5 C4          0.2120   -0.0992   -2.5538 C.2       1 <0>        -0.1426
      6 C5          0.8086   -0.5942   -3.6634 C.2       1 <0>        -0.1769
      7 S1          1.9173   -1.8140   -2.9732 S.3       1 <0>         0.0439
      8 C6          1.5027   -1.5740   -1.2689 C.2       1 <0>        -0.1393
      9 C7          2.0363   -2.2628   -0.0553 C.3       1 <0>        -0.0337
     10 C8          1.0982   -1.9362    1.1190 C.3       1 <0>         0.0567
     11 N1          0.8196   -0.4920    1.1200 N.3       1 <0>        -0.5519
     12 C9          0.2608   -0.0609    2.4083 C.3       1 <0>         0.2830
     13 N2          1.3439    0.0973    3.3820 N.am      1 <0>        -0.5669
     14 C10         1.7893   -0.8889    4.1876 C.2       1 <0>         0.5325
     15 O1          1.3852   -2.0306    4.2423 O.2       1 <0>        -0.4632
     16 C11         2.8981   -0.2704    5.0077 C.3       1 <0>         0.1272
     17 C12         4.2179   -0.9867    4.7434 C.3       1 <0>        -0.1135
     18 C13         5.3320   -0.3262    5.5594 C.3       1 <0>        -0.1119
     19 C14         4.9831   -0.3969    7.0475 C.3       1 <0>        -0.0967
     20 C15         3.6695    0.3458    7.3005 C.3       1 <0>        -0.1121
     21 C16         2.5488   -0.3121    6.4913 C.3       1 <0>        -0.1140
     22 C17         6.1015    0.2527    7.8648 C.3       1 <0>        -0.1491
     23 N3          2.9615    1.1175    4.5326 N.am      1 <0>        -0.7172
     24 C18         2.0184    1.2369    3.5786 C.2       1 <0>         0.7073
     25 O2          1.8016    2.2647    2.9672 O.2       1 <0>        -0.5332
     26 H2          0.8056    1.8737   -0.0510 H         1 <0>         0.0727
     27 H3         -0.7399    1.7198   -0.9204 H         1 <0>         0.0666
     28 H4         -0.7203    1.7651    0.8588 H         1 <0>         0.0602
     29 H5         -0.5322    0.6784   -2.6421 H         1 <0>         0.1326
     30 H6          0.6543   -0.3227   -4.6973 H         1 <0>         0.1868
     31 H7          2.0587   -3.3398   -0.2217 H         1 <0>         0.0875
     32 H8          3.0411   -1.9010    0.1629 H         1 <0>         0.0883
     33 H9          0.1645   -2.4867    1.0047 H         1 <0>         0.0481
     34 H10         1.5769   -2.2156    2.0576 H         1 <0>         0.0903
     35 H11        -0.2547    0.8910    2.2804 H         1 <0>         0.1163
     36 H12        -0.4442   -0.8105    2.7677 H         1 <0>         0.0784
     37 H13         4.1273   -2.0335    5.0333 H         1 <0>         0.0893
     38 H14         4.4590   -0.9237    3.6822 H         1 <0>         0.0754
     39 H15         6.2718   -0.8489    5.3812 H         1 <0>         0.0750
     40 H16         5.4333    0.7166    5.2589 H         1 <0>         0.0653
     41 H17         4.8741   -1.4396    7.3458 H         1 <0>         0.0762
     42 H18         3.4256    0.3016    8.3619 H         1 <0>         0.0751
     43 H19         3.7757    1.3866    6.9948 H         1 <0>         0.0654
     44 H20         1.6157    0.2253    6.6599 H         1 <0>         0.0747
     45 H21         2.4328   -1.3487    6.8080 H         1 <0>         0.0898
     46 H22         6.2112    1.2953    7.5663 H         1 <0>         0.0552
     47 H23         5.8531    0.2024    8.9249 H         1 <0>         0.0568
     48 H24         7.0372   -0.2769    7.6854 H         1 <0>         0.0568
     49 H25         3.5656    1.8105    4.8421 H         1 <0>         0.4388
@<TRIPOS>BOND
     1    1    2 1
     2    1   26 1
     3    1   27 1
     4    1   28 1
     5    2    3 1
     6    2   11 1
     7    2    4 1
     8    4    8 2
     9    4    5 1
    10    5    6 2
    11    5   29 1
    12    6    7 1
    13    6   30 1
    14    7    8 1
    15    8    9 1
    16    9   10 1
    17    9   31 1
    18    9   32 1
    19   10   11 1
    20   10   33 1
    21   10   34 1
    22   11   12 1
    23   12   13 1
    24   12   35 1
    25   12   36 1
    26   13   24 am
    27   13   14 am
    28   14   15 2
    29   14   16 1
    30   16   21 1
    31   16   17 1
    32   16   23 1
    33   17   18 1
    34   17   37 1
    35   17   38 1
    36   18   19 1
    37   18   39 1
    38   18   40 1
    39   19   20 1
    40   19   22 1
    41   19   41 1
    42   20   21 1
    43   20   42 1
    44   20   43 1
    45   21   44 1
    46   21   45 1
    47   22   46 1
    48   22   47 1
    49   22   48 1
    50   23   24 am
    51   23   49 1
    52   24   25 2
@<TRIPOS>MOLECULE
ZINC54702805
   37    40     0     0     0
SMALL
USER_CHARGES

@<TRIPOS>ATOM
      1 C1          0.2461    1.0539   -0.7670 C.3       1 <0>        -0.0664
      2 C2          0.1288   -0.4373   -0.5836 C.2       1 <0>         0.0623
      3 N1         -0.9520   -1.1505   -0.3878 N.2       1 <0>        -0.5006
      4 C3         -0.8934   -2.4594   -0.2439 C.2       1 <0>         0.0190
      5 C4          0.3364   -3.0310   -0.3080 C.2       1 <0>        -0.2009
      6 S1          1.3544   -1.5909   -0.5881 S.3       1 <0>         0.1197
      7 C5         -2.1346   -3.2837   -0.0179 C.3       1 <0>         0.4599
      8 H1         -2.5391   -3.5979   -0.9801 H         1 <0>         0.1262
      9 N2         -1.7924   -4.4695    0.7758 N.pl3     1 <0>        -0.7428
     10 C6         -1.5940   -4.3244    2.1443 C.ar      1 <0>         0.2282
     11 C7         -0.7428   -5.1580    2.8499 C.ar      1 <0>        -0.1781
     12 C8         -0.5904   -4.9853    4.2122 C.ar      1 <0>        -0.0526
     13 C9         -1.2829   -3.9856    4.8775 C.ar      1 <0>        -0.1658
     14 C10        -2.1301   -3.1429    4.1886 C.ar      1 <0>        -0.0206
     15 C11        -2.2873   -3.3007    2.8132 C.ar      1 <0>        -0.1939
     16 C12        -3.1581   -2.4086    2.0282 C.2       1 <0>         0.5668
     17 O1         -3.8934   -1.6194    2.5897 O.2       1 <0>        -0.4651
     18 N3         -3.1310   -2.4758    0.6857 N.am      1 <0>        -0.5421
     19 C13        -4.0726   -1.7577   -0.0493 C.ar      1 <0>         0.3834
     20 C14        -3.9248   -1.6371   -1.4266 C.ar      1 <0>        -0.1814
     21 C15        -4.8666   -0.9221   -2.1446 C.ar      1 <0>        -0.0376
     22 C16        -5.9294   -0.3493   -1.4570 C.ar      1 <0>        -0.1217
     23 C17        -6.0132   -0.5098   -0.0871 C.ar      1 <0>         0.1504
     24 N4         -5.1019   -1.2018    0.5697 N.ar      1 <0>        -0.4644
     25 Cl1        -7.1387    0.5586   -2.3096 Cl        1 <0>        -0.0558
     26 H2          1.2927    1.3208   -0.9134 H         1 <0>         0.0863
     27 H3         -0.3322    1.3593   -1.6391 H         1 <0>         0.0926
     28 H4         -0.1375    1.5602    0.1188 H         1 <0>         0.0915
     29 H5          0.6199   -4.0692   -0.2183 H         1 <0>         0.1967
     30 H6         -1.7059   -5.3384    0.3535 H         1 <0>         0.4206
     31 H7         -0.2010   -5.9395    2.3380 H         1 <0>         0.1320
     32 H8          0.0735   -5.6347    4.7634 H         1 <0>         0.1310
     33 H9         -1.1583   -3.8659    5.9436 H         1 <0>         0.1308
     34 H10        -2.6680   -2.3661    4.7117 H         1 <0>         0.1369
     35 H11        -3.0857   -2.0952   -1.9291 H         1 <0>         0.1389
     36 H12        -4.7776   -0.8113   -3.2153 H         1 <0>         0.1477
     37 H13        -6.8371   -0.0663    0.4522 H         1 <0>         0.1684
@<TRIPOS>BOND
     1    1    2 1
     2    1   26 1
     3    1   27 1
     4    1   28 1
     5    2    6 1
     6    2    3 2
     7    3    4 1
     8    4    5 2
     9    4    7 1
    10    5    6 1
    11    5   29 1
    12    7    8 1
    13    7   18 1
    14    7    9 1
    15    9   10 1
    16    9   30 1
    17   10   15 ar
    18   10   11 ar
    19   11   12 ar
    20   11   31 1
    21   12   13 ar
    22   12   32 1
    23   13   14 ar
    24   13   33 1
    25   14   15 ar
    26   14   34 1
    27   15   16 1
    28   16   17 2
    29   16   18 am
    30   18   19 1
    31   19   24 ar
    32   19   20 ar
    33   20   21 ar
    34   20   35 1
    35   21   22 ar
    36   21   36 1
    37   22   23 ar
    38   22   25 1
    39   23   24 ar
    40   23   37 1
@<TRIPOS>MOLECULE
ZINC36354838
   38    41     0     0     0
SMALL
USER_CHARGES

@<TRIPOS>ATOM
      1 C1         -0.0167    1.3781    0.0096 C.ar      1 <0>        -0.0844
      2 C2          1.1693    2.0867    0.0021 C.ar      1 <0>        -0.1042
      3 C3          2.3811    1.4099   -0.0131 C.ar      1 <0>         0.1212
      4 C4          2.3980    0.0219   -0.0208 C.ar      1 <0>        -0.1124
      5 C5          1.2086   -0.6822   -0.0132 C.ar      1 <0>        -0.0183
      6 C6          0.0021   -0.0041    0.0020 C.ar      1 <0>        -0.0988
      7 Cl1         1.2281   -2.4181   -0.0233 Cl        1 <0>        -0.0474
      8 N1          3.5861    2.1272   -0.0212 N.pl3     1 <0>        -0.4095
      9 C7          3.9152    3.1582   -0.8559 C.2       1 <0>         0.1923
     10 N2          5.1215    3.5705   -0.5601 N.2       1 <0>        -0.4387
     11 C8          5.6013    2.8424    0.4458 C.2       1 <0>        -0.0149
     12 C9          4.6496    1.9348    0.8035 C.2       1 <0>         0.2164
     13 N3          4.8469    1.0255    1.8440 N.am      1 <0>        -0.6447
     14 C10         6.1019    0.8701    2.3201 C.2       1 <0>         0.5343
     15 O1          6.2771    0.1743    3.2981 O.2       1 <0>        -0.5091
     16 C11         7.2867    1.5313    1.6763 C.3       1 <0>        -0.1333
     17 C12         6.9355    2.9196    1.1438 C.3       1 <0>         0.0397
     18 H1          7.6985    3.2544    0.4411 H         1 <0>         0.1200
     19 C13         6.8493    3.8847    2.2980 C.ar      1 <0>        -0.0490
     20 C14         5.9537    3.6502    3.3263 C.ar      1 <0>        -0.1151
     21 C15         5.8695    4.5295    4.3858 C.ar      1 <0>        -0.0655
     22 C16         6.6911    5.6581    4.4192 C.ar      1 <0>        -0.0274
     23 C17         7.5929    5.8883    3.3784 C.ar      1 <0>        -0.0658
     24 C18         7.6700    4.9982    2.3273 C.ar      1 <0>        -0.1032
     25 C19         6.6088    6.5754    5.5158 C.1       1 <0>         0.2509
     26 N4          6.5435    7.3031    6.3856 N.1       1 <0>        -0.4125
     27 H2         -0.9595    1.9047    0.0260 H         1 <0>         0.1484
     28 H3          1.1535    3.1666    0.0077 H         1 <0>         0.1432
     29 H4          3.3395   -0.5072   -0.0330 H         1 <0>         0.1402
     30 H5         -0.9263   -0.5558    0.0079 H         1 <0>         0.1454
     31 H6          3.2839    3.5655   -1.6318 H         1 <0>         0.2199
     32 H7          4.1058    0.5209    2.2142 H         1 <0>         0.4116
     33 H8          8.0873    1.6209    2.4105 H         1 <0>         0.1225
     34 H9          7.6325    0.9138    0.8473 H         1 <0>         0.1157
     35 H10         5.3189    2.7769    3.2991 H         1 <0>         0.1239
     36 H11         5.1695    4.3457    5.1875 H         1 <0>         0.1320
     37 H12         8.2313    6.7593    3.3980 H         1 <0>         0.1366
     38 H13         8.3700    5.1729    1.5236 H         1 <0>         0.1400
@<TRIPOS>BOND
     1    1    6 ar
     2    1    2 ar
     3    1   27 1
     4    2    3 ar
     5    2   28 1
     6    3    4 ar
     7    3    8 1
     8    4    5 ar
     9    4   29 1
    10    5    6 ar
    11    5    7 1
    12    6   30 1
    13    8   12 1
    14    8    9 1
    15    9   10 2
    16    9   31 1
    17   10   11 1
    18   11   17 1
    19   11   12 2
    20   12   13 1
    21   13   14 am
    22   13   32 1
    23   14   15 2
    24   14   16 1
    25   16   17 1
    26   16   33 1
    27   16   34 1
    28   17   18 1
    29   17   19 1
    30   19   24 ar
    31   19   20 ar
    32   20   21 ar
    33   20   35 1
    34   21   22 ar
    35   21   36 1
    36   22   23 ar
    37   22   25 1
    38   23   24 ar
    39   23   37 1
    40   24   38 1
    41   25   26 3
@<TRIPOS>MOLECULE
ZINC67302127
   50    51     0     0     0
SMALL
USER_CHARGES

@<TRIPOS>ATOM
      1 C1          0.0116    0.8901    1.4049 C.3       1 <0>        -0.1611
      2 C2         -0.0455   -0.6252    1.2018 C.3       1 <0>         0.1516
      3 C3          0.5045   -1.3275    2.4448 C.3       1 <0>        -0.1648
      4 N1         -1.4344   -1.0366    0.9828 N.am      1 <0>        -0.7421
      5 C4         -1.7026   -2.1691    0.3032 C.2       1 <0>         0.7091
      6 O1         -0.7975   -2.8015   -0.2059 O.2       1 <0>        -0.5832
      7 N2         -2.9742   -2.6007    0.1880 N.am      1 <0>        -0.6309
      8 C5         -4.0889   -1.7873    0.6936 C.3       1 <0>         0.0963
      9 C6         -5.0843   -1.5551   -0.4499 C.3       1 <0>         0.0888
     10 N3         -5.3810   -2.8473   -1.0839 N.am      1 <0>        -0.6123
     11 C7         -4.2663   -3.6608   -1.5895 C.3       1 <0>         0.0965
     12 C8         -3.2713   -3.8904   -0.4510 C.3       1 <0>         0.1161
     13 C9         -6.6526   -3.2789   -1.1992 C.2       1 <0>         0.5220
     14 O2         -6.8812   -4.3737   -1.6683 O.2       1 <0>        -0.5288
     15 C10        -7.7903   -2.4012   -0.7451 C.3       1 <0>        -0.1011
     16 H1         -7.6221   -2.0932    0.2868 H         1 <0>         0.1009
     17 C11        -7.8680   -1.1631   -1.6406 C.3       1 <0>        -0.1200
     18 C12        -9.0231   -0.2719   -1.1797 C.3       1 <0>        -0.1120
     19 C13       -10.3365   -1.0511   -1.2718 C.3       1 <0>        -0.1231
     20 C14       -10.2589   -2.2892   -0.3762 C.3       1 <0>        -0.1312
     21 H2        -10.0907   -1.9813    0.6557 H         1 <0>         0.1158
     22 C15        -9.1038   -3.1804   -0.8372 C.3       1 <0>        -0.1007
     23 C16       -11.5723   -3.0685   -0.4683 C.3       1 <0>         0.4541
     24 F1        -11.7882   -3.4638   -1.7928 F         1 <0>        -0.1805
     25 F2        -11.5013   -4.2006    0.3505 F         1 <0>        -0.1823
     26 F3        -12.6285   -2.2536   -0.0468 F         1 <0>        -0.1832
     27 H3          1.0450    1.1962    1.5678 H         1 <0>         0.0754
     28 H4         -0.3802    1.3905    0.5193 H         1 <0>         0.0616
     29 H5         -0.5892    1.1633    2.2723 H         1 <0>         0.0603
     30 H6          0.5554   -0.8984    0.3344 H         1 <0>         0.0901
     31 H7         -0.0964   -1.0543    3.3122 H         1 <0>         0.0554
     32 H8          0.4638   -2.4071    2.3001 H         1 <0>         0.0597
     33 H9          1.5379   -1.0215    2.6077 H         1 <0>         0.0672
     34 H10        -2.1609   -0.4938    1.3270 H         1 <0>         0.3933
     35 H11        -4.5850   -2.3133    1.5093 H         1 <0>         0.0775
     36 H12        -3.7105   -0.8291    1.0495 H         1 <0>         0.0897
     37 H13        -6.0029   -1.1228   -0.0532 H         1 <0>         0.1029
     38 H14        -4.6464   -0.8792   -1.1844 H         1 <0>         0.0784
     39 H15        -4.6447   -4.6190   -1.9454 H         1 <0>         0.1075
     40 H16        -3.7702   -3.1348   -2.4052 H         1 <0>         0.0743
     41 H17        -2.3532   -4.3207   -0.8509 H         1 <0>         0.1083
     42 H18        -3.7079   -4.5695    0.2813 H         1 <0>         0.0718
     43 H19        -6.9322   -0.6079   -1.5751 H         1 <0>         0.0765
     44 H20        -8.0362   -1.4710   -2.6726 H         1 <0>         0.0747
     45 H21        -8.8549    0.0361   -0.1477 H         1 <0>         0.0705
     46 H22        -9.0784    0.6102   -1.8177 H         1 <0>         0.0785
     47 H23       -11.1595   -0.4162   -0.9434 H         1 <0>         0.0805
     48 H24       -10.5047   -1.3591   -2.3037 H         1 <0>         0.0795
     49 H25        -9.2719   -3.4884   -1.8692 H         1 <0>         0.0881
     50 H26        -9.0484   -4.0625   -0.1992 H         1 <0>         0.0843
@<TRIPOS>BOND
     1    1    2 1
     2    1   27 1
     3    1   28 1
     4    1   29 1
     5    2    3 1
     6    2    4 1
     7    2   30 1
     8    3   31 1
     9    3   32 1
    10    3   33 1
    11    4    5 am
    12    4   34 1
    13    5    6 2
    14    5    7 am
    15    7   12 1
    16    7    8 1
    17    8    9 1
    18    8   35 1
    19    8   36 1
    20    9   10 1
    21    9   37 1
    22    9   38 1
    23   10   11 1
    24   10   13 am
    25   11   12 1
    26   11   39 1
    27   11   40 1
    28   12   41 1
    29   12   42 1
    30   13   14 2
    31   13   15 1
    32   15   16 1
    33   15   22 1
    34   15   17 1
    35   17   18 1
    36   17   43 1
    37   17   44 1
    38   18   19 1
    39   18   45 1
    40   18   46 1
    41   19   20 1
    42   19   47 1
    43   19   48 1
    44   20   21 1
    45   20   22 1
    46   20   23 1
    47   22   49 1
    48   22   50 1
    49   23   24 1
    50   23   25 1
    51   23   26 1
@<TRIPOS>MOLECULE
ZINC15866194
   36    39     0     0     0
SMALL
USER_CHARGES
(5S,7R)-5-(2,4-difluorophenyl)-7-(4-fluorophenyl)-4,5,6,7-tetrahydrotetrazolo[1,5-a]pyrimidine
@<TRIPOS>ATOM
      1 C1          2.1418   -4.4599    3.6004 C.ar      1 <0>        -0.0618
      2 C2          2.2027   -4.9326    4.8976 C.ar      1 <0>        -0.1515
      3 C3          1.1805   -5.7234    5.3944 C.ar      1 <0>         0.1165
      4 C4          0.0953   -6.0346    4.5927 C.ar      1 <0>        -0.1512
      5 C5          0.0337   -5.5558    3.2978 C.ar      1 <0>        -0.0605
      6 C6          1.0552   -4.7667    2.8027 C.ar      1 <0>        -0.1164
      7 C7          0.9870   -4.2455    1.3903 C.3       1 <0>         0.2065
      8 H1          0.0654   -4.5868    0.9190 H         1 <0>         0.1140
      9 C8          1.0211   -2.7117    1.4026 C.3       1 <0>        -0.1440
     10 C9          1.2314   -2.1862   -0.0219 C.3       1 <0>         0.2008
     11 H2          0.4401   -2.5590   -0.6723 H         1 <0>         0.0998
     12 N1          2.5403   -2.6606   -0.5125 N.pl3     1 <0>        -0.6956
     13 C10         2.8494   -3.9872   -0.2469 C.2       1 <0>         0.4932
     14 N2          2.1350   -4.7349    0.6320 N.pl3     1 <0>        -0.4100
     15 N3          2.7363   -5.9935    0.6260 N.2       1 <0>        -0.0707
     16 N4          3.7224   -5.9261   -0.2088 N.2       1 <0>        -0.0248
     17 N5          3.7940   -4.7473   -0.7252 N.2       1 <0>        -0.3613
     18 C11         1.2106   -0.6794   -0.0131 C.ar      1 <0>        -0.1453
     19 C12         2.3982    0.0280   -0.0207 C.ar      1 <0>        -0.0526
     20 C13         2.3807    1.4097   -0.0136 C.ar      1 <0>        -0.1550
     21 C14         1.1729    2.0874    0.0021 C.ar      1 <0>         0.1418
     22 C15        -0.0167    1.3802    0.0096 C.ar      1 <0>        -0.1857
     23 C16         0.0021   -0.0041    0.0020 C.ar      1 <0>         0.1484
     24 F1         -1.1585   -0.6957    0.0089 F         1 <0>        -0.1230
     25 F2          1.1561    3.4382    0.0090 F         1 <0>        -0.1244
     26 F3          1.2420   -6.1913    6.6603 F         1 <0>        -0.1340
     27 H3          2.9415   -3.8473    3.2110 H         1 <0>         0.1261
     28 H4          3.0497   -4.6895    5.5220 H         1 <0>         0.1399
     29 H5         -0.7028   -6.6510    4.9792 H         1 <0>         0.1427
     30 H6         -0.8126   -5.7984    2.6722 H         1 <0>         0.1388
     31 H7          1.8387   -2.3724    2.0385 H         1 <0>         0.0958
     32 H8          0.0773   -2.3314    1.7935 H         1 <0>         0.1192
     33 H9          3.1494   -2.0785   -0.9933 H         1 <0>         0.4319
     34 H10         3.3405   -0.4997   -0.0325 H         1 <0>         0.1468
     35 H11         3.3091    1.9614   -0.0202 H         1 <0>         0.1500
     36 H12        -0.9590    1.9078    0.0170 H         1 <0>         0.1557
@<TRIPOS>BOND
     1    1    6 ar
     2    1    2 ar
     3    1   27 1
     4    2    3 ar
     5    2   28 1
     6    3    4 ar
     7    3   26 1
     8    4    5 ar
     9    4   29 1
    10    5    6 ar
    11    5   30 1
    12    6    7 1
    13    7    8 1
    14    7   14 1
    15    7    9 1
    16    9   10 1
    17    9   31 1
    18    9   32 1
    19   10   11 1
    20   10   12 1
    21   10   18 1
    22   12   13 1
    23   12   33 1
    24   13   17 2
    25   13   14 1
    26   14   15 1
    27   15   16 2
    28   16   17 1
    29   18   23 ar
    30   18   19 ar
    31   19   20 ar
    32   19   34 1
    33   20   21 ar
    34   20   35 1
    35   21   22 ar
    36   21   25 1
    37   22   23 ar
    38   22   36 1
    39   23   24 1
@<TRIPOS>MOLECULE
ZINC37694597
   29    30     0     0     0
SMALL
USER_CHARGES

@<TRIPOS>ATOM
      1 C1         -0.0167    1.3772    0.0096 C.ar      1 <0>        -0.0220
      2 C2          1.1715    2.0866    0.0021 C.ar      1 <0>        -0.0431
      3 C3          2.3806    1.4144   -0.0136 C.ar      1 <0>        -0.0200
      4 C4          2.4037    0.0323   -0.0217 C.ar      1 <0>        -0.1136
      5 C5          1.2129   -0.6805   -0.0137 C.ar      1 <0>         0.2005
      6 C6          0.0021   -0.0041    0.0020 C.ar      1 <0>        -0.0583
      7 N1         -1.2693   -0.7619    0.0101 N.pl3     1 <0>         0.0332
      8 O1         -2.3246   -0.1720    0.0234 O.2       1 <0>        -0.1595
      9 O2         -1.2526   -1.9707    0.0035 O.3       1 <0>        -0.1073
     10 O3          1.2332   -2.0397   -0.0221 O.3       1 <0>        -0.3021
     11 C7          1.2561   -2.6960    1.2470 C.3       1 <0>         0.1047
     12 H1          0.7532   -2.0817    1.9939 H         1 <0>         0.0777
     13 C8          2.7131   -2.9641    1.6772 C.3       1 <0>        -0.1555
     14 C9          2.6545   -4.3442    2.3779 C.3       1 <0>        -0.1197
     15 C10         1.6323   -5.1232    1.5135 C.3       1 <0>        -0.1551
     16 C11         0.5678   -4.0683    1.1432 C.3       1 <0>         0.1113
     17 H2          0.2163   -4.2337    0.1248 H         1 <0>         0.0815
     18 O4         -0.5287   -4.1364    2.0571 O.3       1 <0>        -0.5579
     19 Br1         4.0564   -0.8864   -0.0443 Br        1 <0>         0.0171
     20 Cl1         1.1448    3.8224    0.0117 Cl        1 <0>        -0.0176
     21 H3         -0.9594    1.9039    0.0260 H         1 <0>         0.1754
     22 H4          3.3068    1.9698   -0.0198 H         1 <0>         0.1685
     23 H5          3.3666   -3.0060    0.8058 H         1 <0>         0.0944
     24 H6          3.0526   -2.1970    2.3732 H         1 <0>         0.0757
     25 H7          3.6297   -4.8306    2.3552 H         1 <0>         0.0749
     26 H8          2.2961   -4.2425    3.4022 H         1 <0>         0.0728
     27 H9          2.1112   -5.5139    0.6156 H         1 <0>         0.0797
     28 H10         1.1831   -5.9319    2.0900 H         1 <0>         0.0788
     29 H11        -1.0039   -4.9784    2.0392 H         1 <0>         0.3855
@<TRIPOS>BOND
     1    1    6 ar
     2    1    2 ar
     3    1   21 1
     4    2    3 ar
     5    2   20 1
     6    3    4 ar
     7    3   22 1
     8    4    5 ar
     9    4   19 1
    10    5    6 ar
    11    5   10 1
    12    6    7 1
    13    7    8 2
    14    7    9 1
    15   10   11 1
    16   11   12 1
    17   11   16 1
    18   11   13 1
    19   13   14 1
    20   13   23 1
    21   13   24 1
    22   14   15 1
    23   14   25 1
    24   14   26 1
    25   15   16 1
    26   15   27 1
    27   15   28 1
    28   16   17 1
    29   16   18 1
    30   18   29 1
@<TRIPOS>MOLECULE
ZINC41472406
   34    36     0     0     0
SMALL
USER_CHARGES

@<TRIPOS>ATOM
      1 C1         -0.1641    1.5299   -0.8580 C.3       1 <0>        -0.1701
      2 C2         -0.1289    0.0010   -0.8118 C.3       1 <0>         0.1186
      3 N1         -1.4756   -0.5107   -0.5456 N.pl3     1 <0>        -0.6981
      4 C3         -1.6924   -1.8718   -0.4587 C.ar      1 <0>         0.5188
      5 C4         -2.9545   -2.3795   -0.0941 C.ar      1 <0>        -0.3282
      6 C5         -4.1970   -1.8013    0.2453 C.2       1 <0>         0.1404
      7 N2         -5.0428   -2.7587    0.5015 N.2       1 <0>        -0.2494
      8 N3         -4.4121   -3.9997    0.3469 N.pl3     1 <0>        -0.3319
      9 C6         -3.1161   -3.7768   -0.0225 C.ar      1 <0>         0.3778
     10 N4         -2.0750   -4.5590   -0.3013 N.ar      1 <0>        -0.5733
     11 C7         -0.9154   -4.0383   -0.6377 C.ar      1 <0>         0.3924
     12 N5         -0.7171   -2.7345   -0.7224 N.ar      1 <0>        -0.6020
     13 C8         -5.0073   -5.2529    0.5389 C.ar      1 <0>         0.1652
     14 C9         -4.6357   -6.3290   -0.2568 C.ar      1 <0>        -0.0973
     15 C10        -5.2237   -7.5637   -0.0651 C.ar      1 <0>        -0.0912
     16 C11        -6.1823   -7.7298    0.9178 C.ar      1 <0>        -0.0919
     17 C12        -6.5553   -6.6601    1.7120 C.ar      1 <0>        -0.0763
     18 C13        -5.9657   -5.4234    1.5288 C.ar      1 <0>        -0.0858
     19 Br1        -7.8674   -6.8918    3.0538 Br        1 <0>        -0.0362
     20 C14        -4.4949   -0.3251    0.3017 C.3       1 <0>        -0.0864
     21 H1          0.8378    1.9106   -1.0561 H         1 <0>         0.0797
     22 H2         -0.8391    1.8540   -1.6501 H         1 <0>         0.0630
     23 H3         -0.5162    1.9143    0.0993 H         1 <0>         0.0626
     24 H4          0.2232   -0.3833   -1.7691 H         1 <0>         0.0749
     25 H5          0.5461   -0.3231   -0.0197 H         1 <0>         0.0721
     26 H6         -2.2149    0.1066   -0.4304 H         1 <0>         0.4113
     27 H7         -0.0927   -4.7029   -0.8568 H         1 <0>         0.2072
     28 H8         -3.8877   -6.2001   -1.0251 H         1 <0>         0.1427
     29 H9         -4.9349   -8.4006   -0.6837 H         1 <0>         0.1446
     30 H10        -6.6409   -8.6964    1.0654 H         1 <0>         0.1409
     31 H11        -6.2535   -4.5896    2.1520 H         1 <0>         0.1424
     32 H12        -4.7474    0.0330   -0.6964 H         1 <0>         0.0918
     33 H13        -5.3347   -0.1493    0.9740 H         1 <0>         0.0912
     34 H14        -3.6182    0.2088    0.6682 H         1 <0>         0.0803
@<TRIPOS>BOND
     1    1    2 1
     2    1   21 1
     3    1   22 1
     4    1   23 1
     5    2    3 1
     6    2   24 1
     7    2   25 1
     8    3    4 1
     9    3   26 1
    10    4   12 ar
    11    4    5 ar
    12    5    9 ar
    13    5    6 1
    14    6    7 2
    15    6   20 1
    16    7    8 1
    17    8    9 1
    18    8   13 1
    19    9   10 ar
    20   10   11 ar
    21   11   12 ar
    22   11   27 1
    23   13   18 ar
    24   13   14 ar
    25   14   15 ar
    26   14   28 1
    27   15   16 ar
    28   15   29 1
    29   16   17 ar
    30   16   30 1
    31   17   18 ar
    32   17   19 1
    33   18   31 1
    34   20   32 1
    35   20   33 1
    36   20   34 1
@<TRIPOS>MOLECULE
ZINC31738789
   40    43     0     0     0
SMALL
USER_CHARGES

@<TRIPOS>ATOM
      1 C1         -0.0163    1.3519    0.0095 C.2       1 <0>        -0.0378
      2 C2          1.1963    2.0691    0.0017 C.2       1 <0>        -0.1701
      3 C3          2.3748    1.4196   -0.0134 C.2       1 <0>         0.1244
      4 N1          2.4185    0.0483   -0.0212 N.pl3     1 <0>        -0.4311
      5 C4          1.2467   -0.6812   -0.0135 C.2       1 <0>         0.2985
      6 C5          0.0021   -0.0041    0.0020 C.2       1 <0>        -0.1219
      7 N2          1.5518   -1.9594   -0.0238 N.2       1 <0>        -0.2904
      8 N3          2.9481   -2.0757   -0.0386 N.pl3     1 <0>        -0.4747
      9 C6          3.4624   -0.8300   -0.0367 C.2       1 <0>         0.6044
     10 N4          4.7582   -0.5130   -0.0481 N.2       1 <0>        -0.6474
     11 C7          5.6801   -1.4762   -0.0628 C.2       1 <0>         0.5456
     12 O1          5.3387   -2.6472   -0.0660 O.2       1 <0>        -0.5817
     13 C8          7.1189   -1.1242   -0.0754 C.ar      1 <0>        -0.0979
     14 C9          7.5125    0.2139   -0.0660 C.ar      1 <0>        -0.0585
     15 C10         8.8542    0.5354   -0.0778 C.ar      1 <0>        -0.1083
     16 C11         9.8083   -0.4662   -0.0989 C.ar      1 <0>        -0.0408
     17 C12         9.4242   -1.7953   -0.1088 C.ar      1 <0>        -0.0959
     18 C13         8.0856   -2.1296   -0.0908 C.ar      1 <0>        -0.0642
     19 C14        11.2721   -0.1081   -0.1118 C.3       1 <0>         0.0155
     20 S1         12.0538   -0.7955   -1.6005 S.3       1 <0>        -0.2138
     21 C15        13.8082   -0.3849   -1.3938 C.3       1 <0>        -0.1013
     22 C16        14.3609   -1.0665   -0.1472 C.3       1 <0>        -0.1250
     23 C17        13.8332   -0.3972    1.1168 C.3       1 <0>        -0.1011
     24 S2         12.0832   -0.8100    1.3543 S.3       1 <0>        -0.2142
     25 H1         -0.9579    1.8805    0.0258 H         1 <0>         0.1552
     26 H2          1.1800    3.1490    0.0077 H         1 <0>         0.1638
     27 H3          3.2958    1.9836   -0.0199 H         1 <0>         0.1812
     28 H4         -0.9225   -0.5622    0.0082 H         1 <0>         0.1647
     29 H5          6.7686    0.9966   -0.0499 H         1 <0>         0.1436
     30 H6          9.1603    1.5711   -0.0710 H         1 <0>         0.1307
     31 H7         10.1736   -2.5728   -0.1256 H         1 <0>         0.1396
     32 H8          7.7869   -3.1675   -0.0936 H         1 <0>         0.1383
     33 H9         11.3828    0.9762   -0.1064 H         1 <0>         0.1119
     34 H10        14.3643   -0.7237   -2.2679 H         1 <0>         0.1173
     35 H11        13.9175    0.6950   -1.2941 H         1 <0>         0.0849
     36 H12        14.0618   -2.1146   -0.1494 H         1 <0>         0.0925
     37 H13        15.4491   -1.0050   -0.1578 H         1 <0>         0.0876
     38 H14        14.4066   -0.7446    1.9762 H         1 <0>         0.1173
     39 H15        13.9406    0.6837    1.0255 H         1 <0>         0.0849
     40 H16         3.4534   -2.9036   -0.0484 H         1 <0>         0.4739
@<TRIPOS>BOND
     1    1    6 2
     2    1    2 1
     3    1   25 1
     4    2    3 2
     5    2   26 1
     6    3    4 1
     7    3   27 1
     8    4    9 1
     9    4    5 1
    10    5    6 1
    11    5    7 2
    12    6   28 1
    13    7    8 1
    14    8    9 1
    15    8   40 1
    16    9   10 2
    17   10   11 1
    18   11   12 2
    19   11   13 1
    20   13   18 ar
    21   13   14 ar
    22   14   15 ar
    23   14   29 1
    24   15   16 ar
    25   15   30 1
    26   16   17 ar
    27   16   19 1
    28   17   18 ar
    29   17   31 1
    30   18   32 1
    31   19   24 1
    32   19   20 1
    33   19   33 1
    34   20   21 1
    35   21   22 1
    36   21   34 1
    37   21   35 1
    38   22   23 1
    39   22   36 1
    40   22   37 1
    41   23   24 1
    42   23   38 1
    43   23   39 1
@<TRIPOS>MOLECULE
ZINC67302830
   50    52     0     0     0
SMALL
USER_CHARGES

@<TRIPOS>ATOM
      1 C1          0.9523    1.2624   -0.1151 C.3       1 <0>        -0.1241
      2 C2          0.6432   -0.2124   -0.0894 C.ar      1 <0>        -0.0274
      3 C3          0.5049   -0.9051   -1.2593 C.ar      1 <0>        -0.1383
      4 C4          0.2208   -2.2635   -1.2429 C.ar      1 <0>        -0.0792
      5 C5          0.0730   -2.9381   -0.0500 C.ar      1 <0>        -0.0844
      6 C6          0.2091   -2.2549    1.1527 C.ar      1 <0>         0.0792
      7 C7          0.5025   -0.8784    1.1301 C.ar      1 <0>        -0.1405
      8 C8          0.5863   -0.4681    2.5314 C.2       1 <0>        -0.0683
      9 C9          0.3513   -1.5862    3.2654 C.2       1 <0>        -0.0460
     10 O1          0.1230   -2.6317    2.4432 O.3       1 <0>        -0.1834
     11 C10         0.3374   -1.6464    4.7339 C.2       1 <0>         0.6032
     12 O2          0.5475   -0.6410    5.3859 O.2       1 <0>        -0.5115
     13 N1          0.0919   -2.8154    5.3582 N.am      1 <0>        -0.7125
     14 C11         0.0780   -2.8753    6.8219 C.3       1 <0>         0.2290
     15 H1         -0.4685   -2.0183    7.2155 H         1 <0>         0.0913
     16 C12         1.5148   -2.8489    7.3471 C.3       1 <0>        -0.1601
     17 C13        -0.5959   -4.1479    7.2661 C.2       1 <0>        -0.2564
     18 C14        -0.3256   -5.4333    6.7855 C.2       1 <0>         0.0874
     19 N2         -1.1084   -6.2759    7.4092 N.2       1 <0>        -0.2916
     20 N3         -1.9028   -5.5523    8.3079 N.pl3     1 <0>        -0.3704
     21 C15        -1.5654   -4.2497    8.2047 C.2       1 <0>         0.1075
     22 C16        -2.1636   -3.1119    8.9912 C.3       1 <0>        -0.0994
     23 C17        -2.9168   -6.1114    9.2054 C.3       1 <0>         0.0991
     24 C18         0.6916   -5.7867    5.7312 C.3       1 <0>        -0.0817
     25 C19         0.8749    0.9153    3.0547 C.3       1 <0>        -0.0996
     26 C20        -0.2360   -4.4131   -0.0498 C.3       1 <0>        -0.1132
     27 H2          2.0326    1.4071   -0.1204 H         1 <0>         0.0764
     28 H3          0.5215    1.7083   -1.0116 H         1 <0>         0.0720
     29 H4          0.5262    1.7383    0.7681 H         1 <0>         0.0743
     30 H5          0.6172   -0.3920   -2.2030 H         1 <0>         0.1325
     31 H6          0.1139   -2.7980   -2.1753 H         1 <0>         0.1378
     32 H7         -0.0756   -3.6170    4.8383 H         1 <0>         0.4058
     33 H8          2.0022   -1.9284    7.0257 H         1 <0>         0.0674
     34 H9          1.5044   -2.8935    8.4361 H         1 <0>         0.0670
     35 H10         2.0613   -3.7060    6.9535 H         1 <0>         0.0594
     36 H11        -3.0240   -2.7122    8.4546 H         1 <0>         0.0840
     37 H12        -2.4812   -3.4736    9.9691 H         1 <0>         0.0749
     38 H13        -1.4182   -2.3269    9.1186 H         1 <0>         0.0898
     39 H14        -2.4549   -6.3724   10.1576 H         1 <0>         0.0767
     40 H15        -3.7011   -5.3731    9.3723 H         1 <0>         0.0883
     41 H16        -3.3486   -7.0047    8.7541 H         1 <0>         0.0917
     42 H17         1.6201   -6.0956    6.2113 H         1 <0>         0.0820
     43 H18         0.3105   -6.6033    5.1179 H         1 <0>         0.0781
     44 H19         0.8798   -4.9169    5.1019 H         1 <0>         0.0755
     45 H20        -0.0614    1.4593    3.1794 H         1 <0>         0.0785
     46 H21         1.3830    0.8414    4.0162 H         1 <0>         0.0923
     47 H22         1.5119    1.4459    2.3470 H         1 <0>         0.0734
     48 H23         0.6954   -4.9794   -0.0443 H         1 <0>         0.0735
     49 H24        -0.8180   -4.6623    0.8375 H         1 <0>         0.0678
     50 H25        -0.8087   -4.6645   -0.9425 H         1 <0>         0.0724
@<TRIPOS>BOND
     1    1    2 1
     2    1   27 1
     3    1   28 1
     4    1   29 1
     5    2    7 ar
     6    2    3 ar
     7    3    4 ar
     8    3   30 1
     9    4    5 ar
    10    4   31 1
    11    5    6 ar
    12    5   26 1
    13    6   10 1
    14    6    7 ar
    15    7    8 1
    16    8    9 2
    17    8   25 1
    18    9   10 1
    19    9   11 1
    20   11   12 2
    21   11   13 am
    22   13   14 1
    23   13   32 1
    24   14   15 1
    25   14   16 1
    26   14   17 1
    27   16   33 1
    28   16   34 1
    29   16   35 1
    30   17   21 2
    31   17   18 1
    32   18   19 2
    33   18   24 1
    34   19   20 1
    35   20   21 1
    36   20   23 1
    37   21   22 1
    38   22   36 1
    39   22   37 1
    40   22   38 1
    41   23   39 1
    42   23   40 1
    43   23   41 1
    44   24   42 1
    45   24   43 1
    46   24   44 1
    47   25   45 1
    48   25   46 1
    49   25   47 1
    50   26   48 1
    51   26   49 1
    52   26   50 1
@<TRIPOS>MOLECULE
ZINC12539601
   39    41     0     0     0
SMALL
USER_CHARGES
(3S)-1-(4-bromo-3-methyl-phenyl)-5-oxo-N-(4-pyridyl)pyrrolidine-3-carboxamide
@<TRIPOS>ATOM
      1 C1          3.4358   -2.5599    0.4541 C.3       1 <0>        -0.1277
      2 C2          3.3421   -1.0796    0.1877 C.ar      1 <0>        -0.0248
      3 C3          2.1160   -0.4455    0.2394 C.ar      1 <0>        -0.1528
      4 C4          2.0297    0.9174   -0.0113 C.ar      1 <0>         0.1837
      5 C5          3.1786    1.6416   -0.3021 C.ar      1 <0>        -0.1581
      6 C6          4.4025    1.0036   -0.3468 C.ar      1 <0>        -0.0565
      7 C7          4.4849   -0.3558   -0.1017 C.ar      1 <0>        -0.1191
      8 Br1         6.1627   -1.2258   -0.1632 Br        1 <0>        -0.0463
      9 N1          0.7879    1.5615    0.0346 N.am      1 <0>        -0.5581
     10 C8          0.6025    3.0123   -0.0869 C.3       1 <0>         0.1091
     11 C9         -0.8195    3.2922    0.4477 C.3       1 <0>        -0.1226
     12 H1         -0.7958    3.5370    1.5096 H         1 <0>         0.1308
     13 C10        -1.5202    1.9342    0.2017 C.3       1 <0>        -0.1429
     14 C11        -0.3882    0.9307    0.1953 C.2       1 <0>         0.5209
     15 O1         -0.5226   -0.2690    0.3127 O.2       1 <0>        -0.4962
     16 C12        -1.4859    4.3899   -0.3411 C.2       1 <0>         0.5301
     17 O2         -0.8966    4.9209   -1.2585 O.2       1 <0>        -0.5026
     18 N2         -2.7367    4.7814   -0.0270 N.am      1 <0>        -0.6663
     19 C13        -3.3890    5.7309   -0.8146 C.ar      1 <0>         0.1833
     20 C14        -2.6815    6.7742   -1.4098 C.ar      1 <0>        -0.1750
     21 C15        -3.3627    7.6897   -2.1849 C.ar      1 <0>         0.1180
     22 N3         -4.6675    7.5922   -2.3572 N.ar      1 <0>        -0.4938
     23 C16        -5.3730    6.6224   -1.8066 C.ar      1 <0>         0.1186
     24 C17        -4.7659    5.6641   -1.0217 C.ar      1 <0>        -0.1981
     25 H2          3.5925   -2.7282    1.5196 H         1 <0>         0.0811
     26 H3          2.5107   -3.0445    0.1419 H         1 <0>         0.0752
     27 H4          4.2719   -2.9777   -0.1066 H         1 <0>         0.0795
     28 H5          1.2247   -1.0101    0.4701 H         1 <0>         0.1628
     29 H6          3.1148    2.7026   -0.4935 H         1 <0>         0.1357
     30 H7          5.2962    1.5662   -0.5729 H         1 <0>         0.1388
     31 H8          1.3425    3.5389    0.5157 H         1 <0>         0.0994
     32 H9          0.6796    3.3162   -1.1309 H         1 <0>         0.1051
     33 H10        -2.0339    1.9360   -0.7596 H         1 <0>         0.1172
     34 H11        -2.2195    1.7152    1.0086 H         1 <0>         0.1221
     35 H12        -3.1835    4.4032    0.7464 H         1 <0>         0.4177
     36 H13        -1.6143    6.8621   -1.2693 H         1 <0>         0.1500
     37 H14        -2.8220    8.4987   -2.6535 H         1 <0>         0.1609
     38 H15        -6.4393    6.5786   -1.9722 H         1 <0>         0.1613
     39 H16        -5.3491    4.8728   -0.5743 H         1 <0>         0.1396
@<TRIPOS>BOND
     1    1    2 1
     2    1   25 1
     3    1   26 1
     4    1   27 1
     5    2    7 ar
     6    2    3 ar
     7    3    4 ar
     8    3   28 1
     9    4    5 ar
    10    4    9 1
    11    5    6 ar
    12    5   29 1
    13    6    7 ar
    14    6   30 1
    15    7    8 1
    16    9   14 am
    17    9   10 1
    18   10   11 1
    19   10   31 1
    20   10   32 1
    21   11   12 1
    22   11   13 1
    23   11   16 1
    24   13   14 1
    25   13   33 1
    26   13   34 1
    27   14   15 2
    28   16   17 2
    29   16   18 am
    30   18   19 1
    31   18   35 1
    32   19   24 ar
    33   19   20 ar
    34   20   21 ar
    35   20   36 1
    36   21   22 ar
    37   21   37 1
    38   22   23 ar
    39   23   24 ar
    40   23   38 1
    41   24   39 1
@<TRIPOS>MOLECULE
ZINC24646292
   40    42     0     0     0
SMALL
USER_CHARGES
(E)-N-[4-(2-methylpyrimidin-4-yl)phenyl]-3-(2-methylthiazol-4-yl)prop-2-enamide
@<TRIPOS>ATOM
      1 C1         14.4895    2.2031    0.5527 C.3       1 <0>        -0.0896
      2 C2         13.3472    1.2254    0.4501 C.ar      1 <0>         0.3249
      3 N1         13.6094   -0.0666    0.4377 N.ar      1 <0>        -0.5270
      4 C3         12.6362   -0.9606    0.3489 C.ar      1 <0>         0.1564
      5 C4         11.3254   -0.5258    0.2740 C.ar      1 <0>        -0.2330
      6 C5         11.0824    0.8508    0.2835 C.ar      1 <0>         0.2297
      7 N2         12.1162    1.6860    0.3751 N.ar      1 <0>        -0.5192
      8 C6          9.6979    1.3721    0.1991 C.ar      1 <0>        -0.0855
      9 C7          9.4672    2.7477    0.2153 C.ar      1 <0>        -0.0476
     10 C8          8.1788    3.2301    0.1372 C.ar      1 <0>        -0.1561
     11 C9          7.1090    2.3467    0.0428 C.ar      1 <0>         0.1776
     12 C10         7.3361    0.9748    0.0323 C.ar      1 <0>        -0.1297
     13 C11         8.6232    0.4879    0.1040 C.ar      1 <0>        -0.0674
     14 N3          5.8049    2.8377   -0.0357 N.am      1 <0>        -0.6836
     15 C12         4.8788    2.1778   -0.7592 C.2       1 <0>         0.5541
     16 O1          5.2011    1.2082   -1.4215 O.2       1 <0>        -0.5295
     17 C13         3.5305    2.6122   -0.7491 C.2       1 <0>        -0.2030
     18 C14         2.6012    1.9500   -1.4751 C.2       1 <0>         0.0159
     19 C15         1.2048    2.3999   -1.4647 C.2       1 <0>         0.0528
     20 C16         0.2297    1.7440   -2.1968 C.2       1 <0>        -0.2190
     21 S1         -1.1771    2.6872   -1.8206 S.3       1 <0>         0.1207
     22 C17        -0.4312    3.8365   -0.7582 C.2       1 <0>         0.0745
     23 N4          0.8204    3.4586   -0.7487 N.2       1 <0>        -0.4883
     24 C18        -1.0681    4.9915   -0.0293 C.3       1 <0>        -0.0712
     25 H1         15.4400    1.6521    0.6060 H         1 <0>         0.0881
     26 H2         14.3686    2.8144    1.4592 H         1 <0>         0.0875
     27 H3         14.4935    2.8564   -0.3323 H         1 <0>         0.0875
     28 H4         12.8632   -2.0164    0.3399 H         1 <0>         0.1706
     29 H5         10.5107   -1.2316    0.2057 H         1 <0>         0.1490
     30 H6         10.2978    3.4341    0.2885 H         1 <0>         0.1403
     31 H7          7.9997    4.2950    0.1496 H         1 <0>         0.1321
     32 H8          6.5034    0.2906   -0.0366 H         1 <0>         0.1395
     33 H9          8.7993   -0.5776    0.0916 H         1 <0>         0.1313
     34 H10         5.5329    3.7632    0.4929 H         1 <0>         0.4392
     35 H11         3.2394    3.4881   -0.1508 H         1 <0>         0.1429
     36 H12         2.8923    1.0741   -2.0734 H         1 <0>         0.1509
     37 H13         0.3214    0.8783   -2.8360 H         1 <0>         0.2032
     38 H14        -0.3041    5.5186    0.5610 H         1 <0>         0.0967
     39 H15        -1.8536    4.6134    0.6416 H         1 <0>         0.0923
     40 H16        -1.5115    5.6856   -0.7585 H         1 <0>         0.0923
@<TRIPOS>BOND
     1    1    2 1
     2    1   25 1
     3    1   26 1
     4    1   27 1
     5    2    7 ar
     6    2    3 ar
     7    3    4 ar
     8    4    5 ar
     9    4   28 1
    10    5    6 ar
    11    5   29 1
    12    6    7 ar
    13    6    8 1
    14    8   13 ar
    15    8    9 ar
    16    9   10 ar
    17    9   30 1
    18   10   11 ar
    19   10   31 1
    20   11   12 ar
    21   11   14 1
    22   12   13 ar
    23   12   32 1
    24   13   33 1
    25   14   15 am
    26   14   34 1
    27   15   16 2
    28   15   17 1
    29   17   18 2
    30   17   35 1
    31   18   19 1
    32   18   36 1
    33   19   23 1
    34   19   20 2
    35   20   21 1
    36   20   37 1
    37   21   22 1
    38   22   23 2
    39   22   24 1
    40   24   38 1
    41   24   39 1
    42   24   40 1
@<TRIPOS>MOLECULE
ZINC43532209
   31    32     0     0     0
SMALL
USER_CHARGES

@<TRIPOS>ATOM
      1 C1         -0.0187    1.5258    0.0104 C.3       1 <0>        -0.1702
      2 C2          0.0021   -0.0041    0.0020 C.3       1 <0>         0.1928
      3 H1          0.5123   -0.3556   -0.8948 H         1 <0>         0.0936
      4 C3          0.7309   -0.5033    1.2229 C.ar      1 <0>        -0.0493
      5 C4          0.0948   -0.5656    2.4533 C.ar      1 <0>        -0.1641
      6 C5          0.7952   -1.0289    3.5509 C.ar      1 <0>         0.1058
      7 N1          2.0531   -1.4082    3.4374 N.ar      1 <0>        -0.4824
      8 C6          2.6897   -1.3626    2.2835 C.ar      1 <0>         0.1060
      9 C7          2.0519   -0.9165    1.1414 C.ar      1 <0>        -0.1656
     10 N2         -1.3723   -0.5112    0.0124 N.pl3     1 <0>        -1.1085
     11 S1         -2.1195   -0.9073   -1.4113 S.o2      1 <0>         2.7003
     12 O1         -3.4136   -1.3859   -1.0714 O.2       1 <0>        -0.9431
     13 O2         -1.9200    0.1888   -2.2934 O.2       1 <0>        -0.9400
     14 C8         -1.2421   -2.2724   -2.0979 C.ar      1 <0>        -0.7347
     15 C9         -0.1719   -2.0601   -2.9536 C.ar      1 <0>         0.0508
     16 C10         0.4893   -3.1647   -3.4702 C.ar      1 <0>        -0.1713
     17 C11         0.0616   -4.4318   -3.1168 C.ar      1 <0>         0.1900
     18 N3         -0.9604   -4.5950   -2.3000 N.ar      1 <0>        -0.4805
     19 C12        -1.6083   -3.5678   -1.7858 C.ar      1 <0>         0.2182
     20 Br1         1.9558   -2.9412   -4.6430 Br        1 <0>        -0.0105
     21 H2          1.0039    1.9031    0.0027 H         1 <0>         0.0745
     22 H3         -0.5459    1.8868   -0.8726 H         1 <0>         0.0821
     23 H4         -0.5289    1.8773    0.9072 H         1 <0>         0.0690
     24 H5         -0.9350   -0.2557    2.5527 H         1 <0>         0.1362
     25 H6          0.3069   -1.0805    4.5128 H         1 <0>         0.1593
     26 H7          3.7202   -1.6814    2.2294 H         1 <0>         0.1590
     27 H8          2.5771   -0.8862    0.1982 H         1 <0>         0.1372
     28 H9         -1.8447   -0.6148    0.8533 H         1 <0>         0.4228
     29 H10         0.1393   -1.0587   -3.2120 H         1 <0>         0.1633
     30 H11         0.5705   -5.2973   -3.5148 H         1 <0>         0.1772
     31 H12        -2.4380   -3.7411   -1.1165 H         1 <0>         0.1819
@<TRIPOS>BOND
     1    1    2 1
     2    1   21 1
     3    1   22 1
     4    1   23 1
     5    2    3 1
     6    2    4 1
     7    2   10 1
     8    4    9 ar
     9    4    5 ar
    10    5    6 ar
    11    5   24 1
    12    6    7 ar
    13    6   25 1
    14    7    8 ar
    15    8    9 ar
    16    8   26 1
    17    9   27 1
    18   10   11 1
    19   10   28 1
    20   11   12 2
    21   11   13 2
    22   11   14 1
    23   14   19 ar
    24   14   15 ar
    25   15   16 ar
    26   15   29 1
    27   16   17 ar
    28   16   20 1
    29   17   18 ar
    30   17   30 1
    31   18   19 ar
    32   19   31 1
@<TRIPOS>MOLECULE
ZINC12631442
   34    35     0     0     0
SMALL
USER_CHARGES

@<TRIPOS>ATOM
      1 C1         -0.0309    1.4798    0.0293 C.3       1 <0>         0.0265
      2 N1         -0.0041    0.0152    0.0130 N.2       1 <0>        -0.5025
      3 C2         -1.1202   -0.6568    0.0154 C.2       1 <0>         0.3924
      4 N2         -1.2907   -2.0276    0.0074 N.am      1 <0>        -0.5493
      5 C3         -2.4858   -2.5927    0.0105 C.2       1 <0>         0.5282
      6 O1         -2.6289   -3.7967    0.0034 O.2       1 <0>        -0.4758
      7 C4         -3.6696   -1.6390    0.0239 C.3       1 <0>        -0.0604
      8 H1         -4.2689   -1.7660    0.9255 H         1 <0>         0.1626
      9 S1         -2.7901   -0.0222    0.0375 S.3       1 <0>        -0.1412
     10 C5         -4.5261   -1.8007   -1.2336 C.3       1 <0>        -0.1188
     11 C6         -5.7502   -0.9286   -1.1232 C.2       1 <0>         0.5198
     12 O2         -5.9208   -0.2451   -0.1359 O.2       1 <0>        -0.5046
     13 N3         -6.6553   -0.9083   -2.1215 N.am      1 <0>        -0.6706
     14 C7         -7.8385   -0.1745   -1.9786 C.ar      1 <0>         0.1572
     15 C8         -9.0215   -0.6475   -2.5311 C.ar      1 <0>        -0.1373
     16 C9        -10.1877    0.0785   -2.3881 C.ar      1 <0>        -0.0714
     17 C10       -10.1780    1.2760   -1.6951 C.ar      1 <0>        -0.1042
     18 C11        -9.0008    1.7496   -1.1436 C.ar      1 <0>        -0.0713
     19 C12        -7.8328    1.0251   -1.2790 C.ar      1 <0>        -0.1140
     20 Br1       -11.7766    2.2675   -1.5019 Br        1 <0>        -0.0479
     21 C13        -0.1039   -2.8864   -0.0054 C.3       1 <0>         0.0687
     22 H2          0.9900    1.8620    0.0247 H         1 <0>         0.0968
     23 H3         -0.5590    1.8434   -0.8521 H         1 <0>         0.0688
     24 H4         -0.5435    1.8239    0.9277 H         1 <0>         0.0700
     25 H5         -3.9468   -1.5048   -2.1082 H         1 <0>         0.1163
     26 H6         -4.8301   -2.8425   -1.3346 H         1 <0>         0.1297
     27 H7         -6.4868   -1.4023   -2.9392 H         1 <0>         0.4161
     28 H8         -9.0295   -1.5820   -3.0724 H         1 <0>         0.1365
     29 H9        -11.1079   -0.2887   -2.8179 H         1 <0>         0.1382
     30 H10        -8.9960    2.6848   -0.6035 H         1 <0>         0.1374
     31 H11        -6.9150    1.3932   -0.8448 H         1 <0>         0.1489
     32 H12         0.7929   -2.2668   -0.0063 H         1 <0>         0.1011
     33 H13        -0.1056   -3.5218    0.8802 H         1 <0>         0.0772
     34 H14        -0.1159   -3.5095   -0.8997 H         1 <0>         0.0771
@<TRIPOS>BOND
     1    1    2 1
     2    1   22 1
     3    1   23 1
     4    1   24 1
     5    2    3 2
     6    3    9 1
     7    3    4 1
     8    4    5 am
     9    4   21 1
    10    5    6 2
    11    5    7 1
    12    7    8 1
    13    7    9 1
    14    7   10 1
    15   10   11 1
    16   10   25 1
    17   10   26 1
    18   11   12 2
    19   11   13 am
    20   13   14 1
    21   13   27 1
    22   14   19 ar
    23   14   15 ar
    24   15   16 ar
    25   15   28 1
    26   16   17 ar
    27   16   29 1
    28   17   18 ar
    29   17   20 1
    30   18   19 ar
    31   18   30 1
    32   19   31 1
    33   21   32 1
    34   21   33 1
    35   21   34 1
@<TRIPOS>MOLECULE
ZINC66443627
   30    31     0     0     0
SMALL
USER_CHARGES

@<TRIPOS>ATOM
      1 C1         -0.0125    1.3748   -0.1802 C.ar      1 <0>        -0.1147
      2 C2          1.1745    2.0810   -0.1831 C.ar      1 <0>        -0.0551
      3 C3          2.3798    1.4110   -0.0184 C.ar      1 <0>         0.1295
      4 C4          2.3871    0.0318    0.1486 C.ar      1 <0>        -0.0372
      5 C5          1.1968   -0.6682    0.1505 C.ar      1 <0>        -0.6388
      6 C6         -0.0017    0.0022   -0.0137 C.ar      1 <0>        -0.0228
      7 S1          1.2050   -2.4174    0.3623 S.o2      1 <0>         2.4784
      8 O1          0.0164   -2.8653   -0.2749 O.2       1 <0>        -0.8850
      9 O2          2.4798   -2.8336   -0.1076 O.2       1 <0>        -0.8877
     10 C7          1.0865   -2.6705    2.1547 C.3       1 <0>        -0.2097
     11 F1          2.1810   -2.0679    2.7841 F         1 <0>        -0.1637
     12 F2         -0.0981   -2.0972    2.6293 F         1 <0>        -0.1626
     13 N1          3.5832    2.1227   -0.0212 N.am      1 <0>        -0.6649
     14 C8          3.6273    3.3739    0.4780 C.2       1 <0>         0.6036
     15 O3          2.6453    3.8486    1.0178 O.2       1 <0>        -0.4911
     16 C9          4.8588    4.1633    0.3706 C.2       1 <0>        -0.2312
     17 C10         5.1160    5.4647    0.8222 C.2       1 <0>         0.0381
     18 C11         6.3963    5.9354    0.5646 C.2       1 <0>        -0.1523
     19 C12         7.2723    5.1344   -0.0800 C.2       1 <0>        -0.2111
     20 S2          6.4208    3.7147   -0.3613 S.3       1 <0>         0.2793
     21 C13         4.1300    6.2518    1.4996 C.1       1 <0>         0.2582
     22 N2          3.3477    6.8762    2.0369 N.1       1 <0>        -0.3806
     23 H1         -0.9505    1.8958   -0.3037 H         1 <0>         0.1442
     24 H2          1.1654    3.1531   -0.3135 H         1 <0>         0.1470
     25 H3          3.3227   -0.4923    0.2766 H         1 <0>         0.1508
     26 H4         -0.9313   -0.5476   -0.0115 H         1 <0>         0.1494
     27 H5          1.0855   -3.7387    2.3715 H         1 <0>         0.1577
     28 H6          4.3863    1.7161   -0.3825 H         1 <0>         0.4155
     29 H7          6.6877    6.9280    0.8749 H         1 <0>         0.1533
     30 H8          8.2942    5.3560   -0.3502 H         1 <0>         0.2038
@<TRIPOS>BOND
     1    1    6 ar
     2    1    2 ar
     3    1   23 1
     4    2    3 ar
     5    2   24 1
     6    3    4 ar
     7    3   13 1
     8    4    5 ar
     9    4   25 1
    10    5    6 ar
    11    5    7 1
    12    6   26 1
    13    7    8 2
    14    7    9 2
    15    7   10 1
    16   10   11 1
    17   10   12 1
    18   10   27 1
    19   13   14 am
    20   13   28 1
    21   14   15 2
    22   14   16 1
    23   16   20 1
    24   16   17 2
    25   17   18 1
    26   17   21 1
    27   18   19 2
    28   18   29 1
    29   19   20 1
    30   19   30 1
    31   21   22 3
@<TRIPOS>MOLECULE
ZINC20567661
   50    53     0     0     0
SMALL
USER_CHARGES
8-(2,3-dimethylphenyl)-3-[[(2S)-tetrahydrofuran-2-yl]methyl]-7-thioxo-2,4-dihydro-1H-pyrimido[6,5-d]pyrimidin-5-one
@<TRIPOS>ATOM
      1 C1         -2.3797    2.1513   -0.7278 C.3       1 <0>        -0.1179
      2 C2         -0.9684    1.6263   -0.6683 C.ar      1 <0>        -0.0757
      3 C3          0.0986    2.5014   -0.7607 C.ar      1 <0>        -0.0895
      4 C4          1.3950    2.0230   -0.7123 C.ar      1 <0>        -0.1100
      5 C5          1.6281    0.6688   -0.5714 C.ar      1 <0>        -0.0815
      6 C6          0.5591   -0.2122   -0.4784 C.ar      1 <0>         0.1014
      7 C7         -0.7419    0.2714   -0.5274 C.ar      1 <0>        -0.0499
      8 C8         -1.9051   -0.6814   -0.4273 C.3       1 <0>        -0.1195
      9 N1          0.7922   -1.5860   -0.3351 N.pl3     1 <0>        -0.4487
     10 C9          0.8989   -2.3821   -1.4576 C.2       1 <0>         0.4809
     11 C10         1.1419   -3.7129   -1.3029 C.2       1 <0>        -0.3437
     12 C11         1.2574   -4.2439   -0.0055 C.2       1 <0>         0.5574
     13 O1          1.4697   -5.4341    0.1519 O.2       1 <0>        -0.5137
     14 N2          1.1321   -3.4327    1.0620 N.am      1 <0>        -0.6254
     15 H1          1.2158   -3.8445    2.0786 H         1 <0>         0.4748
     16 C12         0.9044   -2.1174    0.8942 C.2       1 <0>         0.5376
     17 S1          0.7560   -1.1054    2.2671 S.2       1 <0>        -0.5388
     18 C13         1.2900   -4.6345   -2.4853 C.3       1 <0>         0.1400
     19 N3          0.7912   -3.9637   -3.6948 N.3       1 <0>        -0.5349
     20 C14         1.3445   -2.6010   -3.7660 C.3       1 <0>         0.2730
     21 N4          0.7632   -1.7972   -2.6874 N.pl3     1 <0>        -0.7070
     22 C15         1.1284   -4.7325   -4.9002 C.3       1 <0>         0.0475
     23 C16         0.1995   -5.9434   -5.0093 C.3       1 <0>         0.0822
     24 H2          0.2200   -6.5156   -4.0701 H         1 <0>         0.0838
     25 C17         0.5919   -6.7957   -6.2353 C.3       1 <0>        -0.1535
     26 C18        -0.7919   -7.2244   -6.7951 C.3       1 <0>        -0.1559
     27 C19        -1.6427   -5.9716   -6.4674 C.3       1 <0>         0.0501
     28 O2         -1.1504   -5.5045   -5.2013 O.3       1 <0>        -0.3598
     29 H3         -2.3595    3.2453   -0.8408 H         1 <0>         0.0706
     30 H4         -2.9082    1.8883    0.2004 H         1 <0>         0.0753
     31 H5         -2.9016    1.7036   -1.5864 H         1 <0>         0.0730
     32 H6         -0.0811    3.5606   -0.8709 H         1 <0>         0.1321
     33 H7          2.2261    2.7088   -0.7847 H         1 <0>         0.1343
     34 H8          2.6409    0.2956   -0.5340 H         1 <0>         0.1255
     35 H9         -1.5288   -1.7095   -0.3205 H         1 <0>         0.0536
     36 H10        -2.5185   -0.6081   -1.3375 H         1 <0>         0.0787
     37 H11        -2.5171   -0.4221    0.4492 H         1 <0>         0.0845
     38 H12         2.3512   -4.8911   -2.6195 H         1 <0>         0.0493
     39 H13         0.7101   -5.5526   -2.3095 H         1 <0>         0.0994
     40 H14         2.4377   -2.6427   -3.6516 H         1 <0>         0.0520
     41 H15         1.0945   -2.1542   -4.7396 H         1 <0>         0.1058
     42 H16         0.2836   -0.8341   -2.9164 H         1 <0>         0.4540
     43 H17         1.0054   -4.0949   -5.7881 H         1 <0>         0.0847
     44 H18         2.1717   -5.0753   -4.8366 H         1 <0>         0.0557
     45 H19         1.1679   -6.1793   -6.9412 H         1 <0>         0.0780
     46 H20         1.2051   -7.6483   -5.9081 H         1 <0>         0.0833
     47 H21        -0.7047   -7.4269   -7.8728 H         1 <0>         0.0833
     48 H22        -1.1311   -8.1338   -6.2775 H         1 <0>         0.0793
     49 H23        -1.5061   -5.2187   -7.2576 H         1 <0>         0.0586
     50 H24        -2.7042   -6.2541   -6.4097 H         1 <0>         0.0856
@<TRIPOS>BOND
     1    1    2 1
     2    1   29 1
     3    1   30 1
     4    1   31 1
     5    2    7 ar
     6    2    3 ar
     7    3    4 ar
     8    3   32 1
     9    4    5 ar
    10    4   33 1
    11    5    6 ar
    12    5   34 1
    13    6    7 ar
    14    6    9 1
    15    7    8 1
    16    8   35 1
    17    8   36 1
    18    8   37 1
    19    9   16 1
    20    9   10 1
    21   10   21 1
    22   10   11 2
    23   11   12 1
    24   11   18 1
    25   12   13 2
    26   12   14 am
    27   14   15 1
    28   14   16 1
    29   16   17 2
    30   18   19 1
    31   18   38 1
    32   18   39 1
    33   19   20 1
    34   19   22 1
    35   20   21 1
    36   20   40 1
    37   20   41 1
    38   21   42 1
    39   22   23 1
    40   22   43 1
    41   22   44 1
    42   23   24 1
    43   23   28 1
    44   23   25 1
    45   25   26 1
    46   25   45 1
    47   25   46 1
    48   26   27 1
    49   26   47 1
    50   26   48 1
    51   27   28 1
    52   27   49 1
    53   27   50 1
@<TRIPOS>MOLECULE
ZINC40496227
   44    46     0     0     0
SMALL
USER_CHARGES

@<TRIPOS>ATOM
      1 C1         -1.2287    1.3527   -0.0682 C.3       1 <0>        -0.1165
      2 C2         -0.7640   -0.0802   -0.0235 C.ar      1 <0>        -0.0495
      3 C3         -0.1175   -0.6283   -1.1244 C.ar      1 <0>        -0.1455
      4 C4          0.3112   -1.9234   -1.1048 C.ar      1 <0>        -0.0556
      5 C5          0.0990   -2.7105    0.0347 C.ar      1 <0>        -0.1238
      6 C6          0.4139   -4.0514    0.3627 C.2       1 <0>        -0.1021
      7 C7         -0.0357   -4.2854    1.6233 C.2       1 <0>         0.0112
      8 N1         -0.6284   -3.1377    2.1131 N.pl3     1 <0>        -0.5824
      9 H1         -1.0289   -3.0395    2.9911 H         1 <0>         0.4204
     10 C8         -0.5562   -2.1573    1.1521 C.ar      1 <0>         0.1154
     11 C9         -0.9793   -0.8315    1.1098 C.ar      1 <0>        -0.1378
     12 C10         0.0883   -5.5578    2.3502 C.2       1 <0>         0.5882
     13 O1          0.0937   -6.6095    1.7389 O.2       1 <0>        -0.5158
     14 N2          0.1959   -5.5586    3.6937 N.am      1 <0>        -0.6108
     15 C11         0.1777   -4.2973    4.4469 C.3       1 <0>         0.0834
     16 C12         1.4191   -4.2400    5.3427 C.3       1 <0>        -0.1354
     17 C13         1.4697   -5.4942    6.2182 C.3       1 <0>         0.1458
     18 C14         1.5728   -6.7354    5.3288 C.3       1 <0>        -0.1614
     19 C15         0.3275   -6.8213    4.4333 C.3       1 <0>         0.1126
     20 N3          2.6379   -5.4271    7.0998 N.pl3     1 <0>        -1.1143
     21 S1          2.5553   -6.0488    8.6325 S.o2      1 <0>         2.6125
     22 O2          3.8340   -5.7928    9.1970 O.2       1 <0>        -0.9563
     23 O3          1.3858   -5.4706    9.1957 O.2       1 <0>        -0.9555
     24 C16         2.3207   -7.8325    8.4001 C.3       1 <0>        -0.6764
     25 H2         -0.4341    2.0039    0.2959 H         1 <0>         0.0736
     26 H3         -1.4776    1.6221   -1.0947 H         1 <0>         0.0702
     27 H4         -2.1107    1.4685    0.5618 H         1 <0>         0.0670
     28 H5          0.0469   -0.0237   -2.0041 H         1 <0>         0.1258
     29 H6          0.8125   -2.3409   -1.9655 H         1 <0>         0.1271
     30 H7          0.9203   -4.7610   -0.2748 H         1 <0>         0.1547
     31 H8         -1.4786   -0.3950    1.9622 H         1 <0>         0.1229
     32 H9          0.1889   -3.4569    3.7528 H         1 <0>         0.1003
     33 H10        -0.7201   -4.2527    5.0633 H         1 <0>         0.0816
     34 H11         2.3138   -4.1932    4.7220 H         1 <0>         0.0799
     35 H12         1.3693   -3.3551    5.9773 H         1 <0>         0.0911
     36 H13         0.5633   -5.5534    6.8207 H         1 <0>         0.0981
     37 H14         2.4661   -6.6651    4.7082 H         1 <0>         0.0828
     38 H15         1.6324   -7.6266    5.9535 H         1 <0>         0.0829
     39 H16        -0.5583   -6.9784    5.0487 H         1 <0>         0.0768
     40 H17         0.4376   -7.6469    3.7302 H         1 <0>         0.1038
     41 H18         3.4597   -5.0186    6.7858 H         1 <0>         0.4202
     42 H19         3.1650   -8.2406    7.8444 H         1 <0>         0.1310
     43 H20         2.2560   -8.3202    9.3727 H         1 <0>         0.1318
     44 H21         1.4002   -8.0084    7.8435 H         1 <0>         0.1281
@<TRIPOS>BOND
     1    1    2 1
     2    1   25 1
     3    1   26 1
     4    1   27 1
     5    2   11 ar
     6    2    3 ar
     7    3    4 ar
     8    3   28 1
     9    4    5 ar
    10    4   29 1
    11    5   10 ar
    12    5    6 1
    13    6    7 2
    14    6   30 1
    15    7    8 1
    16    7   12 1
    17    8    9 1
    18    8   10 1
    19   10   11 ar
    20   11   31 1
    21   12   13 2
    22   12   14 am
    23   14   19 1
    24   14   15 1
    25   15   16 1
    26   15   32 1
    27   15   33 1
    28   16   17 1
    29   16   34 1
    30   16   35 1
    31   17   18 1
    32   17   20 1
    33   17   36 1
    34   18   19 1
    35   18   37 1
    36   18   38 1
    37   19   39 1
    38   19   40 1
    39   20   21 1
    40   20   41 1
    41   21   22 2
    42   21   23 2
    43   21   24 1
    44   24   42 1
    45   24   43 1
    46   24   44 1
@<TRIPOS>MOLECULE
ZINC48938956
   35    36     0     0     0
SMALL
USER_CHARGES

@<TRIPOS>ATOM
      1 C1         -0.2108    1.5693   -0.0006 C.3       1 <0>        -0.1496
      2 C2         -0.1315    0.0414   -0.0134 C.3       1 <0>        -0.1394
      3 C3         -1.5450   -0.5430    0.0241 C.3       1 <0>         0.0898
      4 N1         -1.4691   -2.0059    0.0118 N.am      1 <0>        -0.4887
      5 C4         -1.4634   -2.6683   -1.1754 C.2       1 <0>         0.1306
      6 C5         -1.3940   -4.0252   -1.2101 C.2       1 <0>         0.0303
      7 C6         -1.3269   -4.7531   -0.0085 C.2       1 <0>        -0.0051
      8 C7         -1.3327   -4.0817    1.1782 C.2       1 <0>        -0.2247
      9 C8         -1.4003   -2.6782    1.1763 C.2       1 <0>         0.5126
     10 O1         -1.4011   -2.0671    2.2333 O.2       1 <0>        -0.5413
     11 N2         -1.3897   -4.6980   -2.4413 N.am      1 <0>        -0.6657
     12 C9         -0.3696   -5.5206   -2.7562 C.2       1 <0>         0.5884
     13 O2          0.5027   -5.7482   -1.9392 O.2       1 <0>        -0.4746
     14 C10        -0.3108   -6.1428   -4.0872 C.2       1 <0>        -0.0066
     15 C11         0.6621   -7.0091   -4.5581 C.2       1 <0>        -0.1317
     16 C12         0.2779   -7.3209   -5.8653 C.2       1 <0>         0.0643
     17 N3         -0.8332   -6.6791   -6.1212 N.2       1 <0>        -0.2529
     18 N4         -1.2085   -5.9871   -5.1064 N.pl3     1 <0>        -0.3686
     19 H1         -2.0059   -5.4360   -5.0696 H         1 <0>         0.4497
     20 C13         1.0133   -8.2340   -6.8123 C.3       1 <0>        -0.0779
     21 Br1         2.1857   -7.6363   -3.6301 Br        1 <0>         0.0270
     22 H2          0.7962    1.9856   -0.0273 H         1 <0>         0.0631
     23 H3         -0.7687    1.9115   -0.8722 H         1 <0>         0.0576
     24 H4         -0.7164    1.8993    0.9069 H         1 <0>         0.0607
     25 H5          0.3741   -0.2886   -0.9209 H         1 <0>         0.0668
     26 H6          0.4264   -0.3008    0.8583 H         1 <0>         0.0735
     27 H7         -2.0506   -0.2130    0.9316 H         1 <0>         0.1049
     28 H8         -2.1029   -0.2008   -0.8476 H         1 <0>         0.0925
     29 H9         -1.5148   -2.1113   -2.0992 H         1 <0>         0.1645
     30 H10        -1.2719   -5.8315   -0.0256 H         1 <0>         0.1393
     31 H11        -1.2818   -4.6235    2.1110 H         1 <0>         0.1564
     32 H12        -2.1210   -4.5712   -3.0658 H         1 <0>         0.4037
     33 H13         0.6484   -9.2539   -6.6904 H         1 <0>         0.0844
     34 H14         0.8427   -7.9072   -7.8380 H         1 <0>         0.0821
     35 H15         2.0805   -8.2013   -6.5932 H         1 <0>         0.0844
@<TRIPOS>BOND
     1    1    2 1
     2    1   22 1
     3    1   23 1
     4    1   24 1
     5    2    3 1
     6    2   25 1
     7    2   26 1
     8    3    4 1
     9    3   27 1
    10    3   28 1
    11    4    9 am
    12    4    5 1
    13    5    6 2
    14    5   29 1
    15    6    7 1
    16    6   11 1
    17    7    8 2
    18    7   30 1
    19    8    9 1
    20    8   31 1
    21    9   10 2
    22   11   12 am
    23   11   32 1
    24   12   13 2
    25   12   14 1
    26   14   18 1
    27   14   15 2
    28   15   16 1
    29   15   21 1
    30   16   17 2
    31   16   20 1
    32   17   18 1
    33   18   19 1
    34   20   33 1
    35   20   34 1
    36   20   35 1
@<TRIPOS>MOLECULE
ZINC63864953
   49    51     0     0     0
SMALL
USER_CHARGES

@<TRIPOS>ATOM
      1 C1          0.7777    1.5453    0.8996 C.3       1 <0>        -0.1769
      2 C2          0.5279    0.0443    0.7404 C.3       1 <0>         0.0457
      3 C3          1.4680   -0.7303    1.6662 C.3       1 <0>        -0.1764
      4 C4         -0.9235   -0.2728    1.1061 C.3       1 <0>        -0.1752
      5 N1          0.7789   -0.3488   -0.6526 N.4       1 <0>        -0.3584
      6 C5          0.5560   -1.7879   -0.7729 C.3       1 <0>        -0.0170
      7 C6          0.0957   -2.1061   -2.1782 C.3       1 <0>        -0.1548
      8 C7          1.3130   -2.4782   -3.0442 C.3       1 <0>         0.0785
      9 N2          2.4692   -1.6130   -2.7348 N.am      1 <0>        -0.6222
     10 C8          2.3335   -0.1884   -2.5112 C.3       1 <0>         0.0999
     11 C9          2.0744    0.0851   -1.0116 C.3       1 <0>        -0.0554
     12 C10         3.6945   -2.1691   -2.6573 C.2       1 <0>         0.5675
     13 O1          4.6712   -1.4661   -2.4890 O.2       1 <0>        -0.5115
     14 C11         3.8505   -3.6373   -2.7774 C.ar      1 <0>        -0.0803
     15 C12         4.6579   -4.3280   -1.8603 C.ar      1 <0>        -0.1576
     16 C13         4.8170   -5.6772   -1.9497 C.ar      1 <0>        -0.0001
     17 C14         4.1693   -6.3913   -2.9678 C.ar      1 <0>        -0.2223
     18 C15         3.3495   -5.7057   -3.9023 C.ar      1 <0>         0.2212
     19 C16         3.1936   -4.3166   -3.7902 C.ar      1 <0>        -0.1184
     20 N3          2.7369   -6.4033   -4.8693 N.2       1 <0>        -0.5583
     21 C17         2.8899   -7.7156   -4.9579 C.2       1 <0>         0.5096
     22 N4          3.6538   -8.4107   -4.0988 N.pl3     1 <0>        -0.6022
     23 H1          3.7365   -9.3716   -4.2019 H         1 <0>         0.4237
     24 C18         4.3084   -7.7899   -3.0938 C.2       1 <0>         0.5024
     25 O2          5.0726   -8.4868   -2.2347 O.3       1 <0>        -0.6023
     26 S1          2.0845   -8.5572   -6.2125 S.2       1 <0>        -0.6869
     27 H2          1.8400    1.7526    0.7704 H         1 <0>         0.0849
     28 H3          0.2071    2.0904    0.1478 H         1 <0>         0.0804
     29 H4          0.4641    1.8623    1.8943 H         1 <0>         0.1036
     30 H5          1.2818   -0.4386    2.6998 H         1 <0>         0.1025
     31 H6          1.2900   -1.7997    1.5527 H         1 <0>         0.0823
     32 H7          2.5020   -0.5044    1.4056 H         1 <0>         0.0812
     33 H8         -1.5890    0.1553    0.3565 H         1 <0>         0.0805
     34 H9         -1.0619   -1.3534    1.1401 H         1 <0>         0.0845
     35 H10        -1.1537    0.1538    2.0824 H         1 <0>         0.1040
     36 H11         1.4851   -2.3186   -0.5653 H         1 <0>         0.1321
     37 H12        -0.2082   -2.0985   -0.0605 H         1 <0>         0.1388
     38 H13        -0.6011   -2.9439   -2.1515 H         1 <0>         0.1263
     39 H14        -0.4005   -1.2341   -2.6043 H         1 <0>         0.0871
     40 H15         1.5827   -3.5172   -2.8545 H         1 <0>         0.1213
     41 H16         1.0519   -2.3638   -4.0963 H         1 <0>         0.0938
     42 H17         3.2502    0.3154   -2.8178 H         1 <0>         0.1286
     43 H18         1.4981    0.1926   -3.0985 H         1 <0>         0.0984
     44 H19         2.1634    1.1542   -0.8189 H         1 <0>         0.1458
     45 H20         2.8128   -0.4498   -0.4143 H         1 <0>         0.1329
     46 H21         5.1593   -3.7825   -1.0744 H         1 <0>         0.1266
     47 H22         5.4414   -6.1966   -1.2378 H         1 <0>         0.1391
     48 H23         2.5699   -3.7803   -4.4901 H         1 <0>         0.1396
     49 H24         0.1100    0.1249   -1.2411 H         1 <0>         0.4133
@<TRIPOS>BOND
     1    1    2 1
     2    1   27 1
     3    1   28 1
     4    1   29 1
     5    2    3 1
     6    2    4 1
     7    2    5 1
     8    3   30 1
     9    3   31 1
    10    3   32 1
    11    4   33 1
    12    4   34 1
    13    4   35 1
    14    5   11 1
    15    5    6 1
    16    5   49 1
    17    6    7 1
    18    6   36 1
    19    6   37 1
    20    7    8 1
    21    7   38 1
    22    7   39 1
    23    8    9 1
    24    8   40 1
    25    8   41 1
    26    9   10 1
    27    9   12 am
    28   10   11 1
    29   10   42 1
    30   10   43 1
    31   11   44 1
    32   11   45 1
    33   12   13 2
    34   12   14 1
    35   14   19 ar
    36   14   15 ar
    37   15   16 ar
    38   15   46 1
    39   16   17 ar
    40   16   47 1
    41   17   24 2
    42   17   18 ar
    43   18   19 ar
    44   18   20 2
    45   19   48 1
    46   20   21 1
    47   21   22 1
    48   21   26 2
    49   22   23 1
    50   22   24 1
    51   24   25 1
@<TRIPOS>MOLECULE
ZINC66241257
   52    55     0     0     0
SMALL
USER_CHARGES

@<TRIPOS>ATOM
      1 C1          0.0298    1.6384   -2.2218 C.3       1 <0>        -0.1506
      2 C2         -0.1468    0.4979   -1.2173 C.3       1 <0>        -0.0942
      3 H1         -1.1785    0.1474   -1.2450 H         1 <0>         0.0698
      4 C3          0.7907   -0.6527   -1.5850 C.3       1 <0>        -0.1217
      5 C4          2.2454   -0.1772   -1.5274 C.3       1 <0>        -0.1115
      6 C5          2.5537    0.3116   -0.1130 C.3       1 <0>         0.1521
      7 H2          2.3864   -0.4986    0.5967 H         1 <0>         0.0729
      8 C6          1.6289    1.4859    0.2238 C.3       1 <0>        -0.1007
      9 H3          1.7648    2.2766   -0.5140 H         1 <0>         0.0783
     10 C7          0.1808    1.0045    0.1904 C.3       1 <0>        -0.1062
     11 C8          1.9824    2.0202    1.6108 C.3       1 <0>        -0.1171
     12 C9          3.4247    2.5360    1.5988 C.3       1 <0>        -0.1350
     13 C10         4.3794    1.3912    1.2492 C.3       1 <0>         0.0952
     14 N1          3.9446    0.7674   -0.0168 N.am      1 <0>        -0.6014
     15 C11         4.7961    0.6153   -1.0504 C.2       1 <0>         0.5627
     16 O1          4.4365    0.0289   -2.0530 O.2       1 <0>        -0.5205
     17 C12         6.1654    1.1607   -0.9653 C.ar      1 <0>        -0.1282
     18 C13         6.9616    0.8834    0.1489 C.ar      1 <0>        -0.0675
     19 C14         8.2384    1.3934    0.2248 C.ar      1 <0>        -0.1090
     20 C15         8.7358    2.1836   -0.8061 C.ar      1 <0>         0.1767
     21 C16         7.9461    2.4615   -1.9167 C.ar      1 <0>        -0.1501
     22 C17         6.6702    1.9505   -2.0015 C.ar      1 <0>        -0.0411
     23 N2         10.0318    2.6998   -0.7255 N.pl3     1 <0>        -0.3477
     24 C18        10.8817    2.8822   -1.7697 C.2       1 <0>         0.4336
     25 C19        12.0577    3.4148   -1.2487 C.2       1 <0>        -0.2555
     26 C20        11.8724    3.5417    0.1479 C.2       1 <0>         0.1426
     27 N3         10.6739    3.1228    0.4434 N.2       1 <0>        -0.2875
     28 C21        13.2328    3.7676   -1.9871 C.1       1 <0>         0.2928
     29 N4         14.1650    4.0475   -2.5728 N.1       1 <0>        -0.4371
     30 N5         10.6276    2.5933   -3.0961 N.pl3     1 <0>        -0.8321
     31 H4          1.0613    1.9897   -2.1950 H         1 <0>         0.0585
     32 H5         -0.2059    1.2797   -3.2238 H         1 <0>         0.0535
     33 H6         -0.6402    2.4581   -1.9624 H         1 <0>         0.0519
     34 H7          0.6499   -1.4735   -0.8817 H         1 <0>         0.0596
     35 H8          0.5622   -0.9980   -2.5933 H         1 <0>         0.0654
     36 H9          2.9095   -1.0036   -1.7805 H         1 <0>         0.0916
     37 H10         2.3905    0.6390   -2.2350 H         1 <0>         0.0725
     38 H11        -0.4823    1.8316    0.4438 H         1 <0>         0.0666
     39 H12         0.0483    0.1957    0.9090 H         1 <0>         0.0644
     40 H13         1.3064    2.8348    1.8705 H         1 <0>         0.0684
     41 H14         1.8881    1.2196    2.3445 H         1 <0>         0.0655
     42 H15         3.5205    3.3278    0.8558 H         1 <0>         0.0675
     43 H16         3.6769    2.9307    2.5830 H         1 <0>         0.0789
     44 H17         5.3899    1.7824    1.1318 H         1 <0>         0.0937
     45 H18         4.3653    0.6485    2.0469 H         1 <0>         0.0745
     46 H19         6.5758    0.2702    0.9499 H         1 <0>         0.1418
     47 H20         8.8542    1.1798    1.0859 H         1 <0>         0.1460
     48 H21         8.3354    3.0755   -2.7153 H         1 <0>         0.1370
     49 H22         6.0589    2.1633   -2.8661 H         1 <0>         0.1428
     50 H23        12.5989    3.9244    0.8495 H         1 <0>         0.2030
     51 H24         9.7702    2.2214   -3.3558 H         1 <0>         0.4107
     52 H25        11.3066    2.7622   -3.7679 H         1 <0>         0.4241
@<TRIPOS>BOND
     1    1    2 1
     2    1   31 1
     3    1   32 1
     4    1   33 1
     5    2    3 1
     6    2   10 1
     7    2    4 1
     8    4    5 1
     9    4   34 1
    10    4   35 1
    11    5    6 1
    12    5   36 1
    13    5   37 1
    14    6    7 1
    15    6   14 1
    16    6    8 1
    17    8    9 1
    18    8   10 1
    19    8   11 1
    20   10   38 1
    21   10   39 1
    22   11   12 1
    23   11   40 1
    24   11   41 1
    25   12   13 1
    26   12   42 1
    27   12   43 1
    28   13   14 1
    29   13   44 1
    30   13   45 1
    31   14   15 am
    32   15   16 2
    33   15   17 1
    34   17   22 ar
    35   17   18 ar
    36   18   19 ar
    37   18   46 1
    38   19   20 ar
    39   19   47 1
    40   20   21 ar
    41   20   23 1
    42   21   22 ar
    43   21   48 1
    44   22   49 1
    45   23   27 1
    46   23   24 1
    47   24   25 2
    48   24   30 1
    49   25   26 1
    50   25   28 1
    51   26   27 2
    52   26   50 1
    53   28   29 3
    54   30   51 1
    55   30   52 1
@<TRIPOS>MOLECULE
ZINC20977429
   60    63     0     0     0
SMALL
USER_CHARGES
N-[3-[4-(2-fluorophenyl)piperazin-1-yl]propyl]-4-oxo-3,5-dihydro-2H-1,5-benzothiazepine-7-sulfonamide
@<TRIPOS>ATOM
      1 C1         -1.2431    3.4550    0.0311 C.ar      1 <0>        -0.1178
      2 C2         -0.0549    4.1622    0.0240 C.ar      1 <0>        -0.0734
      3 C3          1.1536    3.4902    0.0093 C.ar      1 <0>        -0.1466
      4 C4          1.1770    2.1076    0.0021 C.ar      1 <0>         0.1366
      5 C5         -0.0169    1.3942    0.0097 C.ar      1 <0>         0.0243
      6 C6         -1.2275    2.0737    0.0191 C.ar      1 <0>        -0.1173
      7 N1          0.0021   -0.0041    0.0020 N.pl3     1 <0>        -0.4934
      8 C7         -0.6082   -0.5323   -1.2261 C.3       1 <0>         0.0296
      9 C8         -0.4965   -2.0587   -1.2323 C.3       1 <0>        -0.0083
     10 N2         -1.1639   -2.6010   -0.0406 N.4       1 <0>        -0.4001
     11 C9         -0.5536   -2.0728    1.1875 C.3       1 <0>         0.0017
     12 C10        -0.6653   -0.5464    1.1937 C.3       1 <0>         0.0287
     13 C11        -1.1439   -4.0699   -0.0487 C.3       1 <0>        -0.0066
     14 C12        -1.5527   -4.5778   -1.4328 C.3       1 <0>        -0.1592
     15 C13        -1.5319   -6.1077   -1.4412 C.3       1 <0>         0.1177
     16 N3         -1.9233   -6.5941   -2.7666 N.pl3     1 <0>        -1.1239
     17 S1         -1.6383   -8.1701   -3.1876 S.o2      1 <0>         2.6940
     18 O1         -2.1479   -8.3375   -4.5034 O.2       1 <0>        -0.9402
     19 O2         -0.2834   -8.4407   -2.8552 O.2       1 <0>        -0.9442
     20 C14        -2.6265   -9.1779   -2.1328 C.ar      1 <0>        -0.6507
     21 C15        -3.9104   -9.5217   -2.5151 C.ar      1 <0>        -0.0316
     22 C16        -4.6945  -10.3115   -1.6934 C.ar      1 <0>        -0.0674
     23 C17        -4.1862  -10.7582   -0.4844 C.ar      1 <0>        -0.0815
     24 C18        -2.8923  -10.4138   -0.0995 C.ar      1 <0>         0.1618
     25 C19        -2.1119   -9.6259   -0.9292 C.ar      1 <0>        -0.0443
     26 N4         -2.3902  -10.8785    1.1258 N.am      1 <0>        -0.6846
     27 C20        -2.4684  -12.1779    1.4383 C.2       1 <0>         0.5342
     28 O3         -2.2118  -12.5343    2.5689 O.2       1 <0>        -0.5119
     29 C21        -2.8666  -13.2017    0.4168 C.3       1 <0>        -0.1575
     30 C22        -4.3909  -13.4097    0.4298 C.3       1 <0>        -0.0915
     31 S2         -5.1635  -11.7644    0.5849 S.3       1 <0>        -0.1275
     32 F1          2.3575    1.4509   -0.0126 F         1 <0>        -0.1238
     33 H1         -2.1849    3.9835    0.0418 H         1 <0>         0.1367
     34 H2         -0.0707    5.2421    0.0295 H         1 <0>         0.1423
     35 H3          2.0798    4.0456    0.0031 H         1 <0>         0.1465
     36 H4         -2.1564    1.5227    0.0208 H         1 <0>         0.1276
     37 H5         -1.6683   -0.2411   -1.2633 H         1 <0>         0.0665
     38 H6         -0.0843   -0.1217   -2.1018 H         1 <0>         0.1255
     39 H7         -0.9782   -2.4579   -2.1371 H         1 <0>         0.1435
     40 H8          0.5645   -2.3488   -1.2234 H         1 <0>         0.1398
     41 H9         -1.0776   -2.4834    2.0632 H         1 <0>         0.1407
     42 H10         0.5065   -2.3640    1.2247 H         1 <0>         0.1387
     43 H11        -0.1833   -0.1462    2.0979 H         1 <0>         0.1262
     44 H12        -1.7261   -0.2554    1.1843 H         1 <0>         0.0669
     45 H13        -0.1295   -4.4241    0.1870 H         1 <0>         0.1343
     46 H14        -1.8494   -4.4504    0.7046 H         1 <0>         0.1369
     47 H15        -2.5671   -4.2235   -1.6685 H         1 <0>         0.0968
     48 H16        -0.8472   -4.1973   -2.1861 H         1 <0>         0.1027
     49 H17        -0.5175   -6.4619   -1.2054 H         1 <0>         0.0952
     50 H18        -2.2374   -6.4882   -0.6879 H         1 <0>         0.0721
     51 H19        -2.5497   -5.9683   -3.4193 H         1 <0>         0.4475
     52 H20        -4.3023   -9.1724   -3.4589 H         1 <0>         0.1524
     53 H21        -5.6971  -10.5788   -1.9928 H         1 <0>         0.1532
     54 H22        -1.1073   -9.3590   -0.6360 H         1 <0>         0.1509
     55 H23        -1.9299  -10.1741    1.8343 H         1 <0>         0.4394
     56 H24        -2.5607  -12.8602   -0.5831 H         1 <0>         0.0898
     57 H25        -2.3731  -14.1581    0.6445 H         1 <0>         0.1241
     58 H26        -4.7027  -13.8953   -0.5067 H         1 <0>         0.1114
     59 H27        -4.6667  -14.0471    1.2828 H         1 <0>         0.1281
     60 H28        -2.2152   -2.2782   -0.0635 H         1 <0>         0.4391
@<TRIPOS>BOND
     1    1    6 ar
     2    1    2 ar
     3    1   33 1
     4    2    3 ar
     5    2   34 1
     6    3    4 ar
     7    3   35 1
     8    4    5 ar
     9    4   32 1
    10    5    6 ar
    11    5    7 1
    12    6   36 1
    13    7   12 1
    14    7    8 1
    15    8    9 1
    16    8   37 1
    17    8   38 1
    18    9   10 1
    19    9   39 1
    20    9   40 1
    21   10   11 1
    22   10   13 1
    23   10   60 1
    24   11   12 1
    25   11   41 1
    26   11   42 1
    27   12   43 1
    28   12   44 1
    29   13   14 1
    30   13   45 1
    31   13   46 1
    32   14   15 1
    33   14   47 1
    34   14   48 1
    35   15   16 1
    36   15   49 1
    37   15   50 1
    38   16   17 1
    39   16   51 1
    40   17   18 2
    41   17   19 2
    42   17   20 1
    43   20   25 ar
    44   20   21 ar
    45   21   22 ar
    46   21   52 1
    47   22   23 ar
    48   22   53 1
    49   23   31 1
    50   23   24 ar
    51   24   25 ar
    52   24   26 1
    53   25   54 1
    54   26   27 am
    55   26   55 1
    56   27   28 2
    57   27   29 1
    58   29   30 1
    59   29   56 1
    60   29   57 1
    61   30   31 1
    62   30   58 1
    63   30   59 1
@<TRIPOS>MOLECULE
ZINC39654619
   73    77     0     0     0
SMALL
USER_CHARGES

@<TRIPOS>ATOM
      1 C1         -0.8551    2.5584    0.9310 C.3       1 <0>        -0.1478
      2 C2         -1.8435    2.4096    2.0893 C.3       1 <0>        -0.0905
      3 C3         -1.1132    1.9195    3.3131 C.ar      1 <0>        -0.0739
      4 C4         -0.9858    0.5627    3.5448 C.ar      1 <0>        -0.1137
      5 C5         -0.3158    0.1132    4.6673 C.ar      1 <0>        -0.1080
      6 C6          0.2270    1.0205    5.5578 C.ar      1 <0>        -0.0980
      7 C7          0.1003    2.3773    5.3256 C.ar      1 <0>        -0.1109
      8 C8         -0.5659    2.8268    4.2009 C.ar      1 <0>        -0.1164
      9 C9          0.9565    0.5304    6.7821 C.3       1 <0>        -0.0858
     10 C10         2.4404    0.3526    6.4545 C.3       1 <0>         0.1224
     11 N1          3.1495   -0.1238    7.6446 N.am      1 <0>        -0.7317
     12 C11         4.4766   -0.3526    7.5918 C.2       1 <0>         0.5113
     13 O1          5.0838   -0.1641    6.5590 O.2       1 <0>        -0.5083
     14 C12         5.2061   -0.8427    8.8160 C.3       1 <0>        -0.1142
     15 H1          4.5292   -1.4022    9.4617 H         1 <0>         0.1177
     16 C13         6.4103   -1.7212    8.4091 C.3       1 <0>         0.1230
     17 N2          7.5650   -0.7924    8.3991 N.am      1 <0>        -0.6149
     18 C14         7.3418    0.0859    9.5725 C.3       1 <0>         0.0944
     19 C15         5.8213    0.3403    9.5822 C.3       1 <0>        -0.0712
     20 C16         5.5026    1.6527    8.8724 C.3       1 <0>        -0.1479
     21 C17         6.0761    2.8183    9.6831 C.3       1 <0>        -0.0095
     22 N3          5.4932    2.8132   11.0303 N.4       1 <0>        -0.5048
     23 C18         5.8816    1.5882   11.7396 C.3       1 <0>        -0.0109
     24 C19         5.3001    0.3706   11.0157 C.3       1 <0>        -0.1343
     25 C20         8.5872   -0.7546    7.5215 C.2       1 <0>         0.5960
     26 O2          8.5804   -1.4837    6.5486 O.2       1 <0>        -0.4881
     27 C21         9.7148    0.1719    7.7416 C.ar      1 <0>        -0.2368
     28 C22        10.1584    0.4542    9.0409 C.ar      1 <0>         0.2033
     29 N4         11.1588    1.2746    9.2582 N.ar      1 <0>        -0.4971
     30 C23        11.8016    1.8780    8.2626 C.ar      1 <0>         0.3437
     31 C24        11.4169    1.6467    6.9262 C.ar      1 <0>        -0.2287
     32 C25        10.3576    0.7742    6.6571 C.ar      1 <0>         0.1415
     33 Cl1         9.8535    0.4540    5.0271 Cl        1 <0>         0.0039
     34 C26        12.3095    2.4476    6.0945 C.2       1 <0>         0.1328
     35 N5         13.1275    3.0770    6.8884 N.2       1 <0>        -0.2282
     36 N6         12.8485    2.7547    8.2198 N.pl3     1 <0>        -0.3810
     37 C27        13.5659    3.2756    9.3861 C.3       1 <0>         0.1059
     38 C28        12.2889    2.5304    4.5900 C.3       1 <0>        -0.0888
     39 H2         -0.3968    1.5926    0.7181 H         1 <0>         0.0562
     40 H3         -1.3834    2.9128    0.0459 H         1 <0>         0.0615
     41 H4         -0.0810    3.2757    1.2037 H         1 <0>         0.0551
     42 H5         -2.3019    3.3754    2.3022 H         1 <0>         0.0735
     43 H6         -2.6176    1.6923    1.8166 H         1 <0>         0.0744
     44 H7         -1.4099   -0.1461    2.8490 H         1 <0>         0.1245
     45 H8         -0.2169   -0.9469    4.8487 H         1 <0>         0.1223
     46 H9          0.5241    3.0861    6.0216 H         1 <0>         0.1179
     47 H10        -0.6616    3.8868    4.0176 H         1 <0>         0.1228
     48 H11         0.8465    1.2581    7.5861 H         1 <0>         0.0753
     49 H12         0.5368   -0.4251    7.0969 H         1 <0>         0.0803
     50 H13         2.5503   -0.3751    5.6505 H         1 <0>         0.0742
     51 H14         2.8600    1.3081    6.1397 H         1 <0>         0.0706
     52 H15         2.6639   -0.2746    8.4707 H         1 <0>         0.3990
     53 H16         6.5667   -2.5140    9.1405 H         1 <0>         0.0908
     54 H17         6.2541   -2.1440    7.4166 H         1 <0>         0.1029
     55 H18         7.6480   -0.4186   10.4890 H         1 <0>         0.0918
     56 H19         7.8840    1.0240    9.4542 H         1 <0>         0.0843
     57 H20         5.9491    1.6464    7.8781 H         1 <0>         0.1246
     58 H21         4.4220    1.7665    8.7859 H         1 <0>         0.0971
     59 H22         7.1586    2.7124    9.7554 H         1 <0>         0.1311
     60 H23         5.8358    3.7586    9.1870 H         1 <0>         0.1382
     61 H24         5.8258    3.6165   11.5423 H         1 <0>         0.4340
     62 H25         6.9687    1.5116   11.7634 H         1 <0>         0.1329
     63 H26         5.4978    1.6219   12.7593 H         1 <0>         0.1411
     64 H27         4.2123    0.4382   11.0060 H         1 <0>         0.0987
     65 H28         5.6041   -0.5396   11.5327 H         1 <0>         0.1240
     66 H29         9.6660   -0.0132    9.8808 H         1 <0>         0.1748
     67 H30        14.4014    2.6169    9.6228 H         1 <0>         0.0803
     68 H31        13.9420    4.2745    9.1650 H         1 <0>         0.0960
     69 H32        12.8879    3.3231   10.2383 H         1 <0>         0.0931
     70 H33        11.6260    3.3381    4.2796 H         1 <0>         0.0929
     71 H34        13.2964    2.7260    4.2230 H         1 <0>         0.0912
     72 H35        11.9293    1.5870    4.1791 H         1 <0>         0.0895
     73 H36         4.4875    2.8551   10.9603 H         1 <0>         0.4284
@<TRIPOS>BOND
     1    1    2 1
     2    1   39 1
     3    1   40 1
     4    1   41 1
     5    2    3 1
     6    2   42 1
     7    2   43 1
     8    3    8 ar
     9    3    4 ar
    10    4    5 ar
    11    4   44 1
    12    5    6 ar
    13    5   45 1
    14    6    7 ar
    15    6    9 1
    16    7    8 ar
    17    7   46 1
    18    8   47 1
    19    9   10 1
    20    9   48 1
    21    9   49 1
    22   10   11 1
    23   10   50 1
    24   10   51 1
    25   11   12 am
    26   11   52 1
    27   12   13 2
    28   12   14 1
    29   14   15 1
    30   14   19 1
    31   14   16 1
    32   16   17 1
    33   16   53 1
    34   16   54 1
    35   17   18 1
    36   17   25 am
    37   18   19 1
    38   18   55 1
    39   18   56 1
    40   19   24 1
    41   19   20 1
    42   20   21 1
    43   20   57 1
    44   20   58 1
    45   21   22 1
    46   21   59 1
    47   21   60 1
    48   22   23 1
    49   22   61 1
    50   22   73 1
    51   23   24 1
    52   23   62 1
    53   23   63 1
    54   24   64 1
    55   24   65 1
    56   25   26 2
    57   25   27 1
    58   27   32 ar
    59   27   28 ar
    60   28   29 ar
    61   28   66 1
    62   29   30 ar
    63   30   36 1
    64   30   31 ar
    65   31   32 ar
    66   31   34 1
    67   32   33 1
    68   34   35 2
    69   34   38 1
    70   35   36 1
    71   36   37 1
    72   37   67 1
    73   37   68 1
    74   37   69 1
    75   38   70 1
    76   38   71 1
    77   38   72 1
@<TRIPOS>MOLECULE
ZINC39671825
   72    76     0     0     0
SMALL
USER_CHARGES

@<TRIPOS>ATOM
      1 C1         -1.8808   -8.2245   -3.8198 C.3       1 <0>        -0.0769
      2 C2         -1.7631   -8.2471   -2.3176 C.2       1 <0>         0.0798
      3 C3         -2.2132   -9.2687   -1.4750 C.2       1 <0>        -0.2678
      4 C4         -1.9228   -8.9161   -0.2013 C.2       1 <0>         0.0798
      5 N1         -1.3106   -7.7140   -0.2366 N.pl3     1 <0>        -0.3751
      6 N2         -1.2172   -7.3170   -1.5768 N.2       1 <0>        -0.2950
      7 C5         -0.8246   -6.9599    0.9216 C.3       1 <0>         0.1368
      8 C6          0.6249   -7.3527    1.2142 C.3       1 <0>        -0.1465
      9 C7          1.1324   -6.5651    2.4238 C.3       1 <0>         0.1204
     10 N3          2.5203   -6.9412    2.7039 N.am      1 <0>        -0.7299
     11 C8          3.1785   -6.3710    3.7326 C.2       1 <0>         0.5145
     12 O1          2.6217   -5.5465    4.4263 O.2       1 <0>        -0.5098
     13 C9          4.6062   -6.7578    4.0208 C.3       1 <0>        -0.1149
     14 H1          5.1109   -7.0555    3.1017 H         1 <0>         0.1186
     15 C10         5.3565   -5.5851    4.6911 C.3       1 <0>         0.1110
     16 N4          5.2519   -5.8555    6.1443 N.am      1 <0>        -0.6133
     17 C11         5.4215   -7.3239    6.2592 C.3       1 <0>         0.1096
     18 C12         4.6543   -7.8982    5.0516 C.3       1 <0>        -0.0735
     19 C13         5.3979   -9.0996    4.4762 C.3       1 <0>        -0.1338
     20 C14         5.3819  -10.2410    5.4970 C.3       1 <0>        -0.0101
     21 N5          3.9936  -10.6024    5.8080 N.4       1 <0>        -0.5045
     22 C15         3.3124   -9.4697    6.4466 C.3       1 <0>        -0.0091
     23 C16         3.2409   -8.2958    5.4660 C.3       1 <0>        -0.1466
     24 C17         5.0490   -4.9672    7.1374 C.2       1 <0>         0.6399
     25 O2          4.9868   -5.3484    8.2916 O.2       1 <0>        -0.5146
     26 C18         4.9033   -3.5425    6.8275 C.2       1 <0>        -0.0886
     27 C19         4.6984   -2.5326    7.7418 C.2       1 <0>        -0.0983
     28 C20         4.6183   -1.3403    7.0150 C.2       1 <0>        -0.2039
     29 C21         4.7754   -1.6621    5.6975 C.2       1 <0>         0.0766
     30 O3          4.9521   -2.9901    5.5969 O.3       1 <0>        -0.1534
     31 C22         4.7597   -0.7077    4.5703 C.ar      1 <0>        -0.0347
     32 C23         4.5777    0.6561    4.8085 C.ar      1 <0>        -0.0883
     33 C24         4.5645    1.5419    3.7512 C.ar      1 <0>        -0.1140
     34 C25         4.7311    1.0818    2.4569 C.ar      1 <0>        -0.1020
     35 C26         4.9114   -0.2684    2.2136 C.ar      1 <0>        -0.1182
     36 C27         4.9325   -1.1645    3.2621 C.ar      1 <0>        -0.0963
     37 C28        -2.2286   -9.7214    1.0353 C.3       1 <0>        -0.0911
     38 H2         -0.9992   -8.6902   -4.2604 H         1 <0>         0.0780
     39 H3         -2.7719   -8.7742   -4.1228 H         1 <0>         0.0801
     40 H4         -1.9563   -7.1926   -4.1629 H         1 <0>         0.0741
     41 H5         -2.7061  -10.1780   -1.7860 H         1 <0>         0.1480
     42 H6         -0.8756   -5.8924    0.7075 H         1 <0>         0.1003
     43 H7         -1.4446   -7.1866    1.7889 H         1 <0>         0.0951
     44 H8          0.6759   -8.4202    1.4283 H         1 <0>         0.0731
     45 H9          1.2449   -7.1260    0.3468 H         1 <0>         0.0828
     46 H10         1.0814   -5.4976    2.2097 H         1 <0>         0.0779
     47 H11         0.5124   -6.7918    3.2911 H         1 <0>         0.0738
     48 H12         2.9656   -7.6006    2.1491 H         1 <0>         0.4002
     49 H13         6.4013   -5.5754    4.3805 H         1 <0>         0.0915
     50 H14         4.8773   -4.6374    4.4454 H         1 <0>         0.1092
     51 H15         6.4767   -7.5908    6.2002 H         1 <0>         0.0886
     52 H16         4.9884   -7.6850    7.1920 H         1 <0>         0.0910
     53 H17         4.9081   -9.4253    3.5585 H         1 <0>         0.0977
     54 H18         6.4288   -8.8198    4.2595 H         1 <0>         0.1229
     55 H19         5.8981  -11.1066    5.0819 H         1 <0>         0.1408
     56 H20         5.8864   -9.9201    6.4083 H         1 <0>         0.1338
     57 H21         3.5117  -10.8457    4.9556 H         1 <0>         0.4271
     58 H22         2.3032   -9.7667    6.7317 H         1 <0>         0.1388
     59 H23         3.8663   -9.1671    7.3354 H         1 <0>         0.1353
     60 H24         2.7510   -7.4492    5.9470 H         1 <0>         0.1232
     61 H25         2.6730   -8.5924    4.5841 H         1 <0>         0.0952
     62 H26         4.6154   -2.6408    8.8132 H         1 <0>         0.1653
     63 H27         4.4613   -0.3514    7.4197 H         1 <0>         0.1628
     64 H28         4.4472    1.0165    5.8182 H         1 <0>         0.1320
     65 H29         4.4235    2.5970    3.9340 H         1 <0>         0.1341
     66 H30         4.7199    1.7797    1.6328 H         1 <0>         0.1303
     67 H31         5.0405   -0.6208    1.2010 H         1 <0>         0.1293
     68 H32         5.0777   -2.2176    3.0712 H         1 <0>         0.1234
     69 H33        -1.3902  -10.3824    1.2550 H         1 <0>         0.0758
     70 H34        -2.3904   -9.0478    1.8768 H         1 <0>         0.0686
     71 H35        -3.1265  -10.3166    0.8684 H         1 <0>         0.0881
     72 H36         3.9856  -11.3940    6.4336 H         1 <0>         0.4347
@<TRIPOS>BOND
     1    1    2 1
     2    1   38 1
     3    1   39 1
     4    1   40 1
     5    2    6 2
     6    2    3 1
     7    3    4 2
     8    3   41 1
     9    4    5 1
    10    4   37 1
    11    5    6 1
    12    5    7 1
    13    7    8 1
    14    7   42 1
    15    7   43 1
    16    8    9 1
    17    8   44 1
    18    8   45 1
    19    9   10 1
    20    9   46 1
    21    9   47 1
    22   10   11 am
    23   10   48 1
    24   11   12 2
    25   11   13 1
    26   13   14 1
    27   13   18 1
    28   13   15 1
    29   15   16 1
    30   15   49 1
    31   15   50 1
    32   16   17 1
    33   16   24 am
    34   17   18 1
    35   17   51 1
    36   17   52 1
    37   18   23 1
    38   18   19 1
    39   19   20 1
    40   19   53 1
    41   19   54 1
    42   20   21 1
    43   20   55 1
    44   20   56 1
    45   21   22 1
    46   21   57 1
    47   21   72 1
    48   22   23 1
    49   22   58 1
    50   22   59 1
    51   23   60 1
    52   23   61 1
    53   24   25 2
    54   24   26 1
    55   26   30 1
    56   26   27 2
    57   27   28 1
    58   27   62 1
    59   28   29 2
    60   28   63 1
    61   29   30 1
    62   29   31 1
    63   31   36 ar
    64   31   32 ar
    65   32   33 ar
    66   32   64 1
    67   33   34 ar
    68   33   65 1
    69   34   35 ar
    70   34   66 1
    71   35   36 ar
    72   35   67 1
    73   36   68 1
    74   37   69 1
    75   37   70 1
    76   37   71 1
@<TRIPOS>MOLECULE
ZINC39683341
   69    71     0     0     0
SMALL
USER_CHARGES

@<TRIPOS>ATOM
      1 C1         -5.1249    1.9026    3.7226 C.3       1 <0>        -0.1495
      2 C2         -5.1917    0.3741    3.7367 C.3       1 <0>        -0.0956
      3 C3         -6.4651   -0.0742    4.4566 C.3       1 <0>        -0.1445
      4 C4         -5.2076   -0.1490    2.2990 C.3       1 <0>         0.0669
      5 O1         -5.1524   -1.5769    2.3109 O.3       1 <0>        -0.3871
      6 C5         -5.1621   -2.1698    1.0108 C.3       1 <0>         0.0641
      7 C6         -5.1003   -3.6927    1.1443 C.3       1 <0>        -0.1298
      8 C7         -5.1107   -4.3275   -0.2478 C.3       1 <0>         0.1183
      9 N1         -5.0515   -5.7857   -0.1199 N.am      1 <0>        -0.7262
     10 C8         -5.0494   -6.5594   -1.2235 C.2       1 <0>         0.5200
     11 O2         -5.0965   -6.0485   -2.3224 O.2       1 <0>        -0.5192
     12 C9         -4.9885   -8.0595   -1.0920 C.3       1 <0>        -0.1136
     13 H1         -4.4783   -8.3384   -0.1700 H         1 <0>         0.1138
     14 C10        -4.2704   -8.6778   -2.3124 C.3       1 <0>         0.1170
     15 N2         -5.0064   -9.9353   -2.5823 N.am      1 <0>        -0.6181
     16 C11        -6.4289   -9.5865   -2.3524 C.3       1 <0>         0.0891
     17 C12        -6.4050   -8.6576   -1.1223 C.3       1 <0>        -0.0717
     18 C13        -7.4430   -7.5504   -1.2777 C.3       1 <0>        -0.1483
     19 C14        -8.8457   -8.1638   -1.2463 C.3       1 <0>        -0.0089
     20 N3         -9.0435   -8.8729    0.0236 N.4       1 <0>        -0.5048
     21 C15        -8.1018   -9.9944    0.1227 C.3       1 <0>        -0.0125
     22 C16        -6.6676   -9.4585    0.1494 C.3       1 <0>        -0.1359
     23 C17        -4.4976  -11.1271   -2.9527 C.2       1 <0>         0.5880
     24 O3         -3.2933  -11.2929   -2.9768 O.2       1 <0>        -0.5028
     25 C18        -5.4023  -12.2309   -3.3292 C.ar      1 <0>        -0.1185
     26 C19        -6.7138  -11.9572   -3.7260 C.ar      1 <0>        -0.0836
     27 C20        -7.5557  -12.9905   -4.0768 C.ar      1 <0>        -0.0593
     28 C21        -7.1015  -14.3041   -4.0358 C.ar      1 <0>         0.1480
     29 C22        -5.7970  -14.5803   -3.6415 C.ar      1 <0>        -0.0533
     30 C23        -4.9475  -13.5517   -3.2953 C.ar      1 <0>        -0.0309
     31 Cl1        -5.2356  -16.2223   -3.5918 Cl        1 <0>        -0.0185
     32 O4         -7.9339  -15.3194   -4.3812 O.3       1 <0>        -0.3194
     33 C24        -7.9462  -15.7091   -5.7560 C.3       1 <0>         0.0329
     34 Cl2        -9.1853  -12.6517   -4.5698 Cl        1 <0>        -0.0327
     35 H2         -5.1136    2.2752    4.7469 H         1 <0>         0.0648
     36 H3         -4.2176    2.2219    3.2098 H         1 <0>         0.0579
     37 H4         -5.9959    2.2995    3.2012 H         1 <0>         0.0573
     38 H5         -4.3207   -0.0229    4.2581 H         1 <0>         0.0789
     39 H6         -6.5127   -1.1631    4.4666 H         1 <0>         0.0590
     40 H7         -6.4538    0.2984    5.4808 H         1 <0>         0.0564
     41 H8         -7.3361    0.3228    3.9351 H         1 <0>         0.0521
     42 H9         -6.1233    0.1751    1.8045 H         1 <0>         0.0505
     43 H10        -4.3452    0.2435    1.7600 H         1 <0>         0.0514
     44 H11        -6.0769   -1.8876    0.4896 H         1 <0>         0.0515
     45 H12        -4.2989   -1.8193    0.4451 H         1 <0>         0.0541
     46 H13        -4.1855   -3.9749    1.6654 H         1 <0>         0.0811
     47 H14        -5.9636   -4.0432    1.7099 H         1 <0>         0.0761
     48 H15        -6.0255   -4.0454   -0.7689 H         1 <0>         0.0738
     49 H16        -4.2474   -3.9770   -0.8134 H         1 <0>         0.0768
     50 H17        -5.0138   -6.1944    0.7590 H         1 <0>         0.4023
     51 H18        -4.3343   -8.0084   -3.1703 H         1 <0>         0.1020
     52 H19        -3.2287   -8.8911   -2.0725 H         1 <0>         0.1009
     53 H20        -6.8370   -9.0634   -3.2173 H         1 <0>         0.0936
     54 H21        -7.0109  -10.4832   -2.1396 H         1 <0>         0.0933
     55 H22        -7.3394   -6.8372   -0.4599 H         1 <0>         0.0987
     56 H23        -7.2904   -7.0394   -2.2283 H         1 <0>         0.1283
     57 H24        -9.5900   -7.3730   -1.3405 H         1 <0>         0.1411
     58 H25        -8.9541   -8.8645   -2.0742 H         1 <0>         0.1326
     59 H26        -8.8881   -8.2360    0.7906 H         1 <0>         0.4290
     60 H27        -8.2977  -10.5532    1.0379 H         1 <0>         0.1421
     61 H28        -8.2278  -10.6516   -0.7377 H         1 <0>         0.1315
     62 H29        -5.9684  -10.2928    0.2050 H         1 <0>         0.1198
     63 H30        -6.5361   -8.8143    1.0188 H         1 <0>         0.0997
     64 H31        -7.0674  -10.9373   -3.7573 H         1 <0>         0.1528
     65 H32        -3.9329  -13.7666   -2.9938 H         1 <0>         0.1610
     66 H33        -8.6520  -16.5280   -5.8952 H         1 <0>         0.1097
     67 H34        -8.2474  -14.8612   -6.3712 H         1 <0>         0.0547
     68 H35        -6.9486  -16.0352   -6.0502 H         1 <0>         0.0566
     69 H36        -9.9885   -9.2239    0.0676 H         1 <0>         0.4351
@<TRIPOS>BOND
     1    1    2 1
     2    1   35 1
     3    1   36 1
     4    1   37 1
     5    2    3 1
     6    2    4 1
     7    2   38 1
     8    3   39 1
     9    3   40 1
    10    3   41 1
    11    4    5 1
    12    4   42 1
    13    4   43 1
    14    5    6 1
    15    6    7 1
    16    6   44 1
    17    6   45 1
    18    7    8 1
    19    7   46 1
    20    7   47 1
    21    8    9 1
    22    8   48 1
    23    8   49 1
    24    9   10 am
    25    9   50 1
    26   10   11 2
    27   10   12 1
    28   12   13 1
    29   12   17 1
    30   12   14 1
    31   14   15 1
    32   14   51 1
    33   14   52 1
    34   15   16 1
    35   15   23 am
    36   16   17 1
    37   16   53 1
    38   16   54 1
    39   17   22 1
    40   17   18 1
    41   18   19 1
    42   18   55 1
    43   18   56 1
    44   19   20 1
    45   19   57 1
    46   19   58 1
    47   20   21 1
    48   20   59 1
    49   20   69 1
    50   21   22 1
    51   21   60 1
    52   21   61 1
    53   22   62 1
    54   22   63 1
    55   23   24 2
    56   23   25 1
    57   25   30 ar
    58   25   26 ar
    59   26   27 ar
    60   26   64 1
    61   27   28 ar
    62   27   34 1
    63   28   29 ar
    64   28   32 1
    65   29   30 ar
    66   29   31 1
    67   30   65 1
    68   32   33 1
    69   33   66 1
    70   33   67 1
    71   33   68 1
@<TRIPOS>MOLECULE
ZINC49508770
   72    76     0     0     0
SMALL
USER_CHARGES

@<TRIPOS>ATOM
      1 C1         -0.3487    0.9788   -0.0620 C.3       1 <0>         0.0998
      2 N1         -0.3903   -0.4802    0.0642 N.pl3     1 <0>        -0.6192
      3 C2         -0.6678   -1.4102   -1.0337 C.3       1 <0>         0.1103
      4 C3         -0.5992   -2.8105   -0.4026 C.3       1 <0>        -0.0887
      5 C4         -0.2772   -2.5556    1.0527 C.ar      1 <0>        -0.1571
      6 C5         -0.1656   -1.1873    1.2463 C.ar      1 <0>         0.2306
      7 C6          0.1355   -0.7059    2.5219 C.ar      1 <0>        -0.1700
      8 C7          0.3229   -1.5824    3.5695 C.ar      1 <0>        -0.0647
      9 C8          0.2136   -2.9454    3.3648 C.ar      1 <0>        -0.2139
     10 C9         -0.0934   -3.4295    2.1065 C.ar      1 <0>        -0.0281
     11 C10         0.4195   -3.9005    4.5122 C.3       1 <0>         0.0792
     12 H1         -0.0385   -4.8601    4.2728 H         1 <0>         0.1471
     13 C11         1.9182   -4.0959    4.7503 C.3       1 <0>         0.1030
     14 N2          2.5257   -4.7053    3.5646 N.am      1 <0>        -0.6965
     15 C12         3.8250   -5.0629    3.5815 C.2       1 <0>         0.5198
     16 O1          4.4918   -4.8801    4.5789 O.2       1 <0>        -0.5000
     17 C13         4.4443   -5.6841    2.3727 C.2       1 <0>         0.5099
     18 O2          3.7775   -5.8669    1.3752 O.2       1 <0>        -0.4945
     19 N3          5.7437   -6.0418    2.3896 N.am      1 <0>        -0.6346
     20 C14         6.2976   -6.7135    1.2968 C.ar      1 <0>         0.1573
     21 C15         5.8797   -6.4072    0.0070 C.ar      1 <0>        -0.1412
     22 C16         6.4270   -7.0710   -1.0736 C.ar      1 <0>        -0.0724
     23 C17         7.3908   -8.0415   -0.8765 C.ar      1 <0>        -0.1610
     24 C18         7.8126   -8.3527    0.4100 C.ar      1 <0>         0.1860
     25 C19         7.2699   -7.6833    1.4975 C.ar      1 <0>        -0.1749
     26 N4          8.7882   -9.3358    0.6085 N.am      1 <0>        -0.5607
     27 C20         9.5199  -10.0066   -0.4726 C.3       1 <0>         0.0934
     28 C21        10.7500  -10.6535    0.2018 C.3       1 <0>        -0.1322
     29 C22        10.2527  -10.8378    1.6542 C.3       1 <0>        -0.1543
     30 C23         9.1798   -9.7833    1.8140 C.2       1 <0>         0.5172
     31 O3          8.7358   -9.3993    2.8753 O.2       1 <0>        -0.5100
     32 N5         -0.2013   -3.3505    5.7246 N.4       1 <0>        -0.3755
     33 C24         0.0646   -4.2450    6.8576 C.3       1 <0>        -0.0187
     34 C25        -0.5103   -3.6367    8.1386 C.3       1 <0>        -0.1440
     35 C26        -2.0218   -3.4519    7.9758 C.3       1 <0>        -0.1392
     36 C27        -2.2899   -2.5780    6.7471 C.3       1 <0>        -0.1440
     37 C28        -1.6491   -3.2256    5.5177 C.3       1 <0>        -0.0058
     38 H2          0.6645    1.2931   -0.3124 H         1 <0>         0.0591
     39 H3         -1.0324    1.2950   -0.8498 H         1 <0>         0.0787
     40 H4         -0.6473    1.4338    0.8824 H         1 <0>         0.0719
     41 H5         -1.6619   -1.2276   -1.4418 H         1 <0>         0.0782
     42 H6          0.0864   -1.3097   -1.8142 H         1 <0>         0.0779
     43 H7         -1.5595   -3.3175   -0.4966 H         1 <0>         0.0929
     44 H8          0.1903   -3.3996   -0.8693 H         1 <0>         0.0946
     45 H9          0.2224    0.3577    2.6886 H         1 <0>         0.1289
     46 H10         0.5563   -1.2030    4.5534 H         1 <0>         0.1174
     47 H11        -0.1778   -4.4940    1.9446 H         1 <0>         0.1307
     48 H12         2.3847   -3.1296    4.9417 H         1 <0>         0.0945
     49 H13         2.0673   -4.7481    5.6109 H         1 <0>         0.0991
     50 H14         1.9927   -4.8514    2.7674 H         1 <0>         0.4192
     51 H15         6.2942   -5.8328    3.1604 H         1 <0>         0.4252
     52 H16         5.1261   -5.6498   -0.1504 H         1 <0>         0.1392
     53 H17         6.1006   -6.8313   -2.0748 H         1 <0>         0.1350
     54 H18         7.8164   -8.5588   -1.7236 H         1 <0>         0.1312
     55 H19         7.5999   -7.9198    2.4983 H         1 <0>         0.1611
     56 H20         8.8953  -10.7725   -0.9322 H         1 <0>         0.0850
     57 H21         9.8382   -9.2799   -1.2201 H         1 <0>         0.0904
     58 H22        10.9847  -11.6149   -0.2551 H         1 <0>         0.1002
     59 H23        11.6107   -9.9857    0.1659 H         1 <0>         0.0884
     60 H24         9.8356  -11.8356    1.7909 H         1 <0>         0.1126
     61 H25        11.0642  -10.6625    2.3605 H         1 <0>         0.1104
     62 H26        -0.4029   -5.2123    6.6737 H         1 <0>         0.1324
     63 H27         1.1405   -4.3780    6.9702 H         1 <0>         0.1338
     64 H28        -0.3135   -4.3032    8.9783 H         1 <0>         0.1138
     65 H29        -0.0433   -2.6693    8.3236 H         1 <0>         0.0881
     66 H30        -2.4955   -4.4244    7.8417 H         1 <0>         0.0823
     67 H31        -2.4275   -2.9669    8.8636 H         1 <0>         0.0942
     68 H32        -3.3651   -2.4879    6.5922 H         1 <0>         0.1122
     69 H33        -1.8598   -1.5887    6.9032 H         1 <0>         0.0867
     70 H34        -1.8383   -2.6061    4.6411 H         1 <0>         0.1340
     71 H35        -2.0801   -4.2147    5.3623 H         1 <0>         0.1290
     72 H36         0.1894   -2.4406    5.9182 H         1 <0>         0.4193
@<TRIPOS>BOND
     1    1    2 1
     2    1   38 1
     3    1   39 1
     4    1   40 1
     5    2    6 1
     6    2    3 1
     7    3    4 1
     8    3   41 1
     9    3   42 1
    10    4    5 1
    11    4   43 1
    12    4   44 1
    13    5   10 ar
    14    5    6 ar
    15    6    7 ar
    16    7    8 ar
    17    7   45 1
    18    8    9 ar
    19    8   46 1
    20    9   10 ar
    21    9   11 1
    22   10   47 1
    23   11   12 1
    24   11   13 1
    25   11   32 1
    26   13   14 1
    27   13   48 1
    28   13   49 1
    29   14   15 am
    30   14   50 1
    31   15   16 2
    32   15   17 1
    33   17   18 2
    34   17   19 am
    35   19   20 1
    36   19   51 1
    37   20   25 ar
    38   20   21 ar
    39   21   22 ar
    40   21   52 1
    41   22   23 ar
    42   22   53 1
    43   23   24 ar
    44   23   54 1
    45   24   25 ar
    46   24   26 1
    47   25   55 1
    48   26   30 am
    49   26   27 1
    50   27   28 1
    51   27   56 1
    52   27   57 1
    53   28   29 1
    54   28   58 1
    55   28   59 1
    56   29   30 1
    57   29   60 1
    58   29   61 1
    59   30   31 2
    60   32   37 1
    61   32   33 1
    62   32   72 1
    63   33   34 1
    64   33   62 1
    65   33   63 1
    66   34   35 1
    67   34   64 1
    68   34   65 1
    69   35   36 1
    70   35   66 1
    71   35   67 1
    72   36   37 1
    73   36   68 1
    74   36   69 1
    75   37   70 1
    76   37   71 1
@<TRIPOS>MOLECULE
ZINC09273994
   45    48     0     0     0
SMALL
USER_CHARGES
2-(3,5-dimethyl-1-piperidyl)-3-(3-oxo-5-oxa-2-azabicyclo[4.4.0]deca-7,9,11-trien-8-yl)-cyclobut-2-ene-1,4-dione
@<TRIPOS>ATOM
      1 C1          7.1310   -0.3677    0.2003 C.3       1 <0>        -0.1439
      2 C2          8.2422    0.6622    0.4138 C.3       1 <0>        -0.0879
      3 H1          8.8565    0.3638    1.2634 H         1 <0>         0.0823
      4 C3          9.1127    0.7430   -0.8432 C.3       1 <0>        -0.1164
      5 C4          8.2550    1.2195   -2.0187 C.3       1 <0>        -0.0876
      6 H2          7.4636    0.4946   -2.2091 H         1 <0>         0.0865
      7 C5          7.6341    2.5752   -1.6743 C.3       1 <0>         0.0563
      8 N1          6.8106    2.4448   -0.4654 N.pl3     1 <0>        -0.4705
      9 C6          7.6216    2.0340    0.6878 C.3       1 <0>         0.0590
     10 C7          6.1381    3.6068   -0.2027 C.2       1 <0>         0.0675
     11 C8          4.7909    3.9322   -0.0130 C.2       1 <0>        -0.0490
     12 C9          5.1182    5.3488    0.1851 C.2       1 <0>         0.3472
     13 O1          4.4890    6.3649    0.4106 O.2       1 <0>        -0.3774
     14 C10         6.5463    5.0062   -0.0090 C.2       1 <0>         0.3123
     15 O2          7.5975    5.6170   -0.0121 O.2       1 <0>        -0.3833
     16 C11         3.5375    3.1589   -0.0169 C.ar      1 <0>        -0.0423
     17 C12         3.5524    1.8020   -0.3579 C.ar      1 <0>        -0.0583
     18 C13         2.3799    1.0785   -0.3602 C.ar      1 <0>        -0.1311
     19 C14         1.1819    1.6953   -0.0253 C.ar      1 <0>         0.1231
     20 C15         1.1594    3.0500    0.3158 C.ar      1 <0>         0.0709
     21 C16         2.3297    3.7801    0.3211 C.ar      1 <0>        -0.0696
     22 O3         -0.0235    3.6382    0.6400 O.3       1 <0>        -0.2971
     23 C17        -1.1886    3.1482   -0.0290 C.3       1 <0>         0.0495
     24 C18        -1.1870    1.6409   -0.0137 C.2       1 <0>         0.4907
     25 O4         -2.2355    1.0317    0.0117 O.2       1 <0>        -0.5008
     26 N2         -0.0143    0.9711   -0.0244 N.am      1 <0>        -0.6594
     27 C19         9.1304    1.3607   -3.2656 C.3       1 <0>        -0.1492
     28 H3          7.5736   -1.3438    0.0018 H         1 <0>         0.0527
     29 H4          6.5117   -0.4249    1.0954 H         1 <0>         0.0536
     30 H5          6.5162   -0.0681   -0.6484 H         1 <0>         0.0680
     31 H6          9.5221   -0.2421   -1.0668 H         1 <0>         0.0712
     32 H7          9.9280    1.4474   -0.6781 H         1 <0>         0.0635
     33 H8          7.0112    2.9106   -2.5035 H         1 <0>         0.0840
     34 H9          8.4261    3.3028   -1.4974 H         1 <0>         0.0531
     35 H10         8.4136    2.7643    0.8535 H         1 <0>         0.0512
     36 H11         6.9898    1.9763    1.5741 H         1 <0>         0.0856
     37 H12         4.4837    1.3213   -0.6191 H         1 <0>         0.1525
     38 H13         2.3925    0.0312   -0.6236 H         1 <0>         0.1427
     39 H14         2.3140    4.8274    0.5847 H         1 <0>         0.1504
     40 H15        -2.0802    3.5171    0.4779 H         1 <0>         0.1509
     41 H16        -1.1877    3.4969   -1.0617 H         1 <0>         0.1041
     42 H17        -0.0021    0.0012   -0.0354 H         1 <0>         0.4194
     43 H18         9.9224    2.0844   -3.0735 H         1 <0>         0.0560
     44 H19         9.5724    0.3948   -3.5105 H         1 <0>         0.0618
     45 H20         8.5200    1.7032   -4.1012 H         1 <0>         0.0579
@<TRIPOS>BOND
     1    1    2 1
     2    1   28 1
     3    1   29 1
     4    1   30 1
     5    2    3 1
     6    2    9 1
     7    2    4 1
     8    4    5 1
     9    4   31 1
    10    4   32 1
    11    5    6 1
    12    5    7 1
    13    5   27 1
    14    7    8 1
    15    7   33 1
    16    7   34 1
    17    8    9 1
    18    8   10 1
    19    9   35 1
    20    9   36 1
    21   10   14 1
    22   10   11 2
    23   11   12 1
    24   11   16 1
    25   12   13 2
    26   12   14 1
    27   14   15 2
    28   16   21 ar
    29   16   17 ar
    30   17   18 ar
    31   17   37 1
    32   18   19 ar
    33   18   38 1
    34   19   26 1
    35   19   20 ar
    36   20   21 ar
    37   20   22 1
    38   21   39 1
    39   22   23 1
    40   23   24 1
    41   23   40 1
    42   23   41 1
    43   24   25 2
    44   24   26 am
    45   26   42 1
    46   27   43 1
    47   27   44 1
    48   27   45 1
@<TRIPOS>MOLECULE
ZINC25533477
   43    46     0     0     0
SMALL
USER_CHARGES
(2R)-4-acetyl-N-(3-quinolyl)-2,3-dihydro-1,4-benzoxazine-2-carboxamide
@<TRIPOS>ATOM
      1 C1         -1.2848   -0.7520   -0.0131 C.3       1 <0>        -0.1802
      2 C2          0.0139    0.0120   -0.0428 C.2       1 <0>         0.5169
      3 O1          0.0046    1.2196   -0.1554 O.2       1 <0>        -0.5123
      4 N1          1.1856   -0.6467    0.0558 N.am      1 <0>        -0.5580
      5 C3          1.2343   -2.1189    0.0615 C.3       1 <0>         0.0738
      6 C4          2.4144   -2.5470   -0.8225 C.3       1 <0>         0.0666
      7 H1          2.3118   -2.1872   -1.8569 H         1 <0>         0.1125
      8 O2          3.6131   -1.9650   -0.3048 O.3       1 <0>        -0.2869
      9 C5          3.6039   -0.6340   -0.0308 C.ar      1 <0>         0.0925
     10 C6          2.4042    0.0471    0.1509 C.ar      1 <0>         0.0740
     11 C7          2.4110    1.4041    0.4293 C.ar      1 <0>        -0.1114
     12 C8          3.6126    2.0830    0.5189 C.ar      1 <0>        -0.1257
     13 C9          4.8045    1.4087    0.3309 C.ar      1 <0>        -0.1014
     14 C10         4.8032    0.0554    0.0649 C.ar      1 <0>        -0.1211
     15 C11         2.5360   -4.0490   -0.8101 C.2       1 <0>         0.5263
     16 O3          3.5165   -4.5741   -0.3264 O.2       1 <0>        -0.4863
     17 N2          1.5552   -4.8088   -1.3366 N.am      1 <0>        -0.6744
     18 C12         1.6238   -6.2033   -1.2429 C.ar      1 <0>         0.0849
     19 C13         2.8450   -6.8454   -1.3186 C.ar      1 <0>        -0.0611
     20 C14         2.8617   -8.2478   -1.2146 C.ar      1 <0>        -0.0837
     21 C15         4.0651   -8.9700   -1.2765 C.ar      1 <0>        -0.0967
     22 C16         4.0412  -10.3273   -1.1757 C.ar      1 <0>        -0.1101
     23 C17         2.8379  -11.0108   -1.0114 C.ar      1 <0>        -0.1016
     24 C18         1.6538  -10.3433   -0.9484 C.ar      1 <0>        -0.0899
     25 C19         1.6365   -8.9407   -1.0480 C.ar      1 <0>         0.1136
     26 N3          0.4867   -8.2621   -0.9871 N.ar      1 <0>        -0.4542
     27 C20         0.4554   -6.9558   -1.0779 C.ar      1 <0>         0.1233
     28 H2         -1.0756   -1.8267    0.0935 H         1 <0>         0.0824
     29 H3         -1.8349   -0.5766   -0.9494 H         1 <0>         0.1060
     30 H4         -1.8918   -0.4104    0.8383 H         1 <0>         0.1071
     31 H5          1.3769   -2.4770    1.0917 H         1 <0>         0.1016
     32 H6          0.2907   -2.5186   -0.3383 H         1 <0>         0.1198
     33 H7          1.4797    1.9309    0.5764 H         1 <0>         0.1641
     34 H8          3.6196    3.1408    0.7364 H         1 <0>         0.1309
     35 H9          5.7409    1.9424    0.4008 H         1 <0>         0.1333
     36 H10         5.7381   -0.4655   -0.0806 H         1 <0>         0.1373
     37 H11         0.7008   -4.3327   -1.8399 H         1 <0>         0.4400
     38 H12         3.7599   -6.2866   -1.4502 H         1 <0>         0.1536
     39 H13         5.0039   -8.4513   -1.4029 H         1 <0>         0.1320
     40 H14         4.9668  -10.8817   -1.2234 H         1 <0>         0.1303
     41 H15         2.8452  -12.0879   -0.9333 H         1 <0>         0.1321
     42 H16         0.7305  -10.8888   -0.8208 H         1 <0>         0.1371
     43 H17        -0.4956   -6.4468   -1.0238 H         1 <0>         0.1631
@<TRIPOS>BOND
     1    1    2 1
     2    1   28 1
     3    1   29 1
     4    1   30 1
     5    2    3 2
     6    2    4 am
     7    4   10 1
     8    4    5 1
     9    5    6 1
    10    5   31 1
    11    5   32 1
    12    6    7 1
    13    6    8 1
    14    6   15 1
    15    8    9 1
    16    9   14 ar
    17    9   10 ar
    18   10   11 ar
    19   11   12 ar
    20   11   33 1
    21   12   13 ar
    22   12   34 1
    23   13   14 ar
    24   13   35 1
    25   14   36 1
    26   15   16 2
    27   15   17 am
    28   17   18 1
    29   17   37 1
    30   18   27 ar
    31   18   19 ar
    32   19   20 ar
    33   19   38 1
    34   20   25 ar
    35   20   21 ar
    36   21   22 ar
    37   21   39 1
    38   22   23 ar
    39   22   40 1
    40   23   24 ar
    41   23   41 1
    42   24   25 ar
    43   24   42 1
    44   25   26 ar
    45   26   27 ar
    46   27   43 1
@<TRIPOS>MOLECULE
ZINC41304135
   43    46     0     0     0
SMALL
USER_CHARGES

@<TRIPOS>ATOM
      1 C1         -0.0184    1.5028    0.0103 C.3       1 <0>        -0.1062
      2 C2          0.0021   -0.0041    0.0020 C.2       1 <0>        -0.0388
      3 C3          0.0058   -0.6846   -1.1757 C.2       1 <0>        -0.1139
      4 C4          0.0249   -2.0892   -1.1677 C.2       1 <0>        -0.1318
      5 C5          0.0390   -2.7632    0.0013 C.2       1 <0>         0.0435
      6 N1          0.0350   -2.0929    1.1902 N.pl3     1 <0>        -0.3592
      7 C6          0.0233   -0.7223    1.2144 C.2       1 <0>         0.2280
      8 N2          0.0297   -0.3342    2.4819 N.2       1 <0>        -0.4605
      9 C7          0.0515   -1.4117    3.2700 C.2       1 <0>         0.0634
     10 C8          0.0459   -2.5160    2.4914 C.2       1 <0>        -0.0852
     11 C9          0.0655   -1.3985    4.7769 C.3       1 <0>        -0.0452
     12 C10         1.2226   -0.5633    5.2612 C.2       1 <0>         0.5155
     13 O1          1.9630   -0.0311    4.4614 O.2       1 <0>        -0.4754
     14 N3          1.4347   -0.4077    6.5830 N.am      1 <0>        -0.6151
     15 C11         2.5020    0.3628    7.0297 C.2       1 <0>         0.2486
     16 N4          2.8631    0.6190    8.2686 N.2       1 <0>        -0.5560
     17 C12         3.9151    1.3787    8.5485 C.2       1 <0>         0.0998
     18 C13         4.5774    1.8635    7.4644 C.2       1 <0>        -0.2750
     19 S1          3.6521    1.1895    6.1154 S.3       1 <0>         0.2433
     20 C14         5.7821    2.7403    7.4674 C.3       1 <0>         0.1480
     21 N5          5.9445    3.2901    8.8284 N.3       1 <0>        -0.5376
     22 C15         5.8501    2.2240    9.8353 C.3       1 <0>         0.0535
     23 C16         4.4067    1.7238    9.9480 C.3       1 <0>        -0.0330
     24 C17         7.2125    4.0212    8.9530 C.3       1 <0>         0.0243
     25 H1          1.0042    1.8801    0.0026 H         1 <0>         0.0782
     26 H2         -0.5455    1.8639   -0.8728 H         1 <0>         0.0732
     27 H3         -0.5286    1.8543    0.9071 H         1 <0>         0.0781
     28 H4         -0.0062   -0.1476   -2.1126 H         1 <0>         0.1430
     29 H5          0.0279   -2.6321   -2.1013 H         1 <0>         0.1520
     30 H6          0.0533   -3.8431   -0.0039 H         1 <0>         0.1631
     31 H7          0.0608   -3.5407    2.8323 H         1 <0>         0.1841
     32 H8         -0.8683   -0.9739    5.1452 H         1 <0>         0.1210
     33 H9          0.1727   -2.4177    5.1481 H         1 <0>         0.1200
     34 H10         0.8426   -0.8333    7.2226 H         1 <0>         0.4241
     35 H11         6.6627    2.1570    7.1983 H         1 <0>         0.0550
     36 H12         5.6469    3.5542    6.7551 H         1 <0>         0.0938
     37 H13         6.4971    1.3959    9.5455 H         1 <0>         0.0402
     38 H14         6.1744    2.6106   10.8014 H         1 <0>         0.0868
     39 H15         3.7790    2.5051   10.3764 H         1 <0>         0.0897
     40 H16         4.3728    0.8359   10.5794 H         1 <0>         0.0865
     41 H17         7.2588    4.8006    8.1925 H         1 <0>         0.0726
     42 H18         7.2748    4.4746    9.9423 H         1 <0>         0.0744
     43 H19         8.0449    3.3307    8.8168 H         1 <0>         0.0289
@<TRIPOS>BOND
     1    1    2 1
     2    1   25 1
     3    1   26 1
     4    1   27 1
     5    2    7 1
     6    2    3 2
     7    3    4 1
     8    3   28 1
     9    4    5 2
    10    4   29 1
    11    5    6 1
    12    5   30 1
    13    6   10 1
    14    6    7 1
    15    7    8 2
    16    8    9 1
    17    9   10 2
    18    9   11 1
    19   10   31 1
    20   11   12 1
    21   11   32 1
    22   11   33 1
    23   12   13 2
    24   12   14 am
    25   14   15 1
    26   14   34 1
    27   15   19 1
    28   15   16 2
    29   16   17 1
    30   17   23 1
    31   17   18 2
    32   18   19 1
    33   18   20 1
    34   20   21 1
    35   20   35 1
    36   20   36 1
    37   21   22 1
    38   21   24 1
    39   22   23 1
    40   22   37 1
    41   22   38 1
    42   23   39 1
    43   23   40 1
    44   24   41 1
    45   24   42 1
    46   24   43 1
@<TRIPOS>MOLECULE
ZINC09061065
   50    53     0     0     0
SMALL
USER_CHARGES

@<TRIPOS>ATOM
      1 C1         -0.0186    1.3773    0.0071 C.ar      1 <0>        -0.1187
      2 C2          1.0046    2.0810    0.6151 C.ar      1 <0>        -0.0731
      3 C3          2.0508    1.4056    1.2164 C.ar      1 <0>        -0.1439
      4 C4          2.0765    0.0230    1.2111 C.ar      1 <0>         0.1002
      5 C5          1.0484   -0.6869    0.6001 C.ar      1 <0>         0.0993
      6 C6          0.0004   -0.0041   -0.0022 C.ar      1 <0>        -0.0931
      7 N1          1.0706   -2.0851    0.5920 N.pl3     1 <0>        -0.6616
      8 C7          0.4392   -2.8495    1.6769 C.3       1 <0>         0.1226
      9 C8         -0.5737   -3.8246    1.0642 C.3       1 <0>         0.0689
     10 N2          0.0809   -4.5560   -0.0296 N.pl3     1 <0>        -0.5367
     11 C9          0.7122   -3.7916   -1.1145 C.3       1 <0>         0.0707
     12 C10         1.7203   -2.8166   -0.5047 C.3       1 <0>         0.1279
     13 C11         0.1027   -5.9349   -0.0376 C.cat     1 <0>         0.6919
     14 N3          0.0130   -6.5657   -1.1752 N.pl3     1 <0>        -0.5863
     15 C12         0.0334   -8.0255   -1.2224 C.3       1 <0>         0.1346
     16 C13        -0.7110   -8.5206   -2.4759 C.3       1 <0>        -0.1298
     17 C14         0.4132   -8.7512   -3.5171 C.3       1 <0>        -0.1295
     18 C15         1.5671   -9.3220   -2.6553 C.3       1 <0>        -0.1261
     19 C16         1.4797   -8.5301   -1.3334 C.3       1 <0>        -0.1454
     20 C17        -0.6247   -8.6006    0.0308 C.3       1 <0>         0.0362
     21 H1         -0.3780   -9.6586    0.1199 H         1 <0>         0.2354
     22 C18        -0.1091   -7.8583    1.2388 C.2       1 <0>         0.5837
     23 N4          0.2225   -6.6015    1.1376 N.pl3     1 <0>        -0.5741
     24 O1          0.0133   -8.4934    2.4180 O.3       1 <0>        -0.3300
     25 C19        -2.0851   -8.4412   -0.0620 C.1       1 <0>         0.1366
     26 N5         -3.2122   -8.3183   -0.1337 N.1       1 <0>        -0.2602
     27 F1          3.0988   -0.6370    1.7981 F         1 <0>        -0.1338
     28 H2         -0.8362    1.9083   -0.4575 H         1 <0>         0.1385
     29 H3          0.9869    3.1609    0.6202 H         1 <0>         0.1431
     30 H4          2.8486    1.9583    1.6902 H         1 <0>         0.1445
     31 H5         -0.7997   -0.5523   -0.4772 H         1 <0>         0.1290
     32 H6          1.2004   -3.4075    2.2222 H         1 <0>         0.0708
     33 H7         -0.0737   -2.1672    2.3547 H         1 <0>         0.1163
     34 H8         -0.9101   -4.5288    1.8253 H         1 <0>         0.0998
     35 H9         -1.4264   -3.2690    0.6740 H         1 <0>         0.1351
     36 H10         1.2251   -4.4740   -1.7923 H         1 <0>         0.1120
     37 H11        -0.0490   -3.2337   -1.6599 H         1 <0>         0.1281
     38 H12         2.0532   -2.1125   -1.2673 H         1 <0>         0.1184
     39 H13         2.5747   -3.3721   -0.1183 H         1 <0>         0.0745
     40 H14        -1.2338   -9.4536   -2.2657 H         1 <0>         0.1233
     41 H15        -1.4092   -7.7620   -2.8297 H         1 <0>         0.1046
     42 H16         0.0997   -9.4741   -4.2702 H         1 <0>         0.1059
     43 H17         0.7076   -7.8104   -3.9823 H         1 <0>         0.0836
     44 H18         1.4168  -10.3861   -2.4732 H         1 <0>         0.0953
     45 H19         2.5275   -9.1490   -3.1409 H         1 <0>         0.0987
     46 H20         2.1693   -7.6863   -1.3569 H         1 <0>         0.1011
     47 H21         1.7140   -9.1815   -0.4914 H         1 <0>         0.1056
     48 H22         0.3514   -7.9356    3.1320 H         1 <0>         0.4655
     49 H23        -0.0685   -6.0601   -1.9990 H         1 <0>         0.4667
     50 H24         0.5581   -6.1326    1.9177 H         1 <0>         0.4739
@<TRIPOS>BOND
     1    1    6 ar
     2    1    2 ar
     3    1   28 1
     4    2    3 ar
     5    2   29 1
     6    3    4 ar
     7    3   30 1
     8    4    5 ar
     9    4   27 1
    10    5    6 ar
    11    5    7 1
    12    6   31 1
    13    7   12 1
    14    7    8 1
    15    8    9 1
    16    8   32 1
    17    8   33 1
    18    9   10 1
    19    9   34 1
    20    9   35 1
    21   10   11 1
    22   10   13 1
    23   11   12 1
    24   11   36 1
    25   11   37 1
    26   12   38 1
    27   12   39 1
    28   13   23 1
    29   13   14 2
    30   14   15 1
    31   14   49 1
    32   15   19 1
    33   15   16 1
    34   15   20 1
    35   16   17 1
    36   16   40 1
    37   16   41 1
    38   17   18 1
    39   17   42 1
    40   17   43 1
    41   18   19 1
    42   18   44 1
    43   18   45 1
    44   19   46 1
    45   19   47 1
    46   20   21 1
    47   20   22 1
    48   20   25 1
    49   22   23 2
    50   22   24 1
    51   23   50 1
    52   24   48 1
    53   25   26 3
@<TRIPOS>MOLECULE
ZINC65627130
   44    47     0     0     0
SMALL
USER_CHARGES

@<TRIPOS>ATOM
      1 C1         -0.0344    1.5380   -0.0237 C.3       1 <0>        -0.1436
      2 C2         -0.0020    0.0085   -0.0423 C.3       1 <0>         0.0760
      3 H1          0.4838   -0.3343   -0.9558 H         1 <0>         0.0646
      4 C3         -1.4346   -0.5347    0.0106 C.3       1 <0>         0.0819
      5 N1         -1.3713   -1.9950    0.1806 N.am      1 <0>        -0.6039
      6 C4         -0.5239   -2.5297    1.2582 C.3       1 <0>         0.0544
      7 C5          0.8643   -1.8894    1.1446 C.3       1 <0>         0.1243
      8 H2          1.3536   -2.2399    0.2358 H         1 <0>         0.0693
      9 O1          0.7250   -0.4676    1.0929 O.3       1 <0>        -0.3686
     10 C6          1.6945   -2.2716    2.3428 C.ar      1 <0>        -0.0826
     11 C7          1.5203   -1.6099    3.5439 C.ar      1 <0>        -0.0894
     12 C8          2.2818   -1.9605    4.6430 C.ar      1 <0>        -0.1221
     13 C9          3.2173   -2.9732    4.5411 C.ar      1 <0>        -0.1146
     14 C10         3.3909   -3.6355    3.3402 C.ar      1 <0>        -0.1211
     15 C11         2.6263   -3.2878    2.2423 C.ar      1 <0>        -0.1055
     16 C12        -2.0692   -2.8183   -0.6266 C.2       1 <0>         0.6060
     17 O2         -2.8213   -2.3563   -1.4625 O.2       1 <0>        -0.5226
     18 C13        -1.9202   -4.2824   -0.4955 C.2       1 <0>        -0.0035
     19 C14        -2.4820   -5.2587   -1.3455 C.2       1 <0>        -0.1409
     20 C15        -2.0750   -6.4634   -0.8354 C.2       1 <0>         0.0904
     21 N2         -1.3111   -6.1876    0.2622 N.pl3     1 <0>        -0.3654
     22 H3         -0.8868   -6.8527    0.8266 H         1 <0>         0.4502
     23 N3         -1.2331   -4.9170    0.4338 N.2       1 <0>        -0.2402
     24 C16        -2.3994   -7.7982   -1.3680 C.2       1 <0>         0.0431
     25 C17        -1.9914   -8.9878   -0.8462 C.2       1 <0>        -0.1850
     26 C18        -2.5299   -9.9972   -1.6682 C.2       1 <0>        -0.2101
     27 C19        -3.2322   -9.3825   -2.6404 C.2       1 <0>        -0.0174
     28 O3         -3.1562   -8.0546   -2.4528 O.3       1 <0>        -0.1587
     29 H4          0.9845    1.9235   -0.0595 H         1 <0>         0.0695
     30 H5         -0.5904    1.9002   -0.8884 H         1 <0>         0.0767
     31 H6         -0.5204    1.8801    0.8900 H         1 <0>         0.0676
     32 H7         -1.9651   -0.0897    0.8524 H         1 <0>         0.0807
     33 H8         -1.9524   -0.2953   -0.9182 H         1 <0>         0.1048
     34 H9         -0.9627   -2.2857    2.2257 H         1 <0>         0.0779
     35 H10        -0.4387   -3.6115    1.1556 H         1 <0>         0.1465
     36 H11         0.7894   -0.8188    3.6235 H         1 <0>         0.1267
     37 H12         2.1462   -1.4431    5.5812 H         1 <0>         0.1238
     38 H13         3.8128   -3.2466    5.3996 H         1 <0>         0.1227
     39 H14         4.1220   -4.4264    3.2605 H         1 <0>         0.1238
     40 H15         2.7593   -3.8077    1.3051 H         1 <0>         0.1212
     41 H16        -3.1015   -5.0917   -2.2142 H         1 <0>         0.1729
     42 H17        -1.3739   -9.1300    0.0283 H         1 <0>         0.1510
     43 H18        -2.4038  -11.0624   -1.5428 H         1 <0>         0.1567
     44 H19        -3.7708   -9.8761   -3.4358 H         1 <0>         0.2126
@<TRIPOS>BOND
     1    1    2 1
     2    1   29 1
     3    1   30 1
     4    1   31 1
     5    2    3 1
     6    2    9 1
     7    2    4 1
     8    4    5 1
     9    4   32 1
    10    4   33 1
    11    5    6 1
    12    5   16 am
    13    6    7 1
    14    6   34 1
    15    6   35 1
    16    7    8 1
    17    7    9 1
    18    7   10 1
    19   10   15 ar
    20   10   11 ar
    21   11   12 ar
    22   11   36 1
    23   12   13 ar
    24   12   37 1
    25   13   14 ar
    26   13   38 1
    27   14   15 ar
    28   14   39 1
    29   15   40 1
    30   16   17 2
    31   16   18 1
    32   18   23 2
    33   18   19 1
    34   19   20 2
    35   19   41 1
    36   20   21 1
    37   20   24 1
    38   21   22 1
    39   21   23 1
    40   24   28 1
    41   24   25 2
    42   25   26 1
    43   25   42 1
    44   26   27 2
    45   26   43 1
    46   27   28 1
    47   27   44 1
@<TRIPOS>MOLECULE
ZINC12398937
   46    48     0     0     0
SMALL
USER_CHARGES
2-[1-[4-(difluoromethyl)-2-isopropyl-pyrazolo[4,3-e]pyridin-6-yl]-4-piperidyl]acetic acid
@<TRIPOS>ATOM
      1 C1          4.0632    0.6520    1.4049 C.3       1 <0>        -0.1656
      2 C2          3.5373    0.7722   -0.0268 C.3       1 <0>         0.1443
      3 C3          4.0690   -0.3922   -0.8649 C.3       1 <0>        -0.1677
      4 N1          2.0728    0.7357   -0.0138 N.pl3     1 <0>        -0.3095
      5 C4          1.3318   -0.3797   -0.0127 C.2       1 <0>         0.1060
      6 C5          0.0021   -0.0041    0.0020 C.ar      1 <0>        -0.2638
      7 C6         -1.2297   -0.6971    0.0101 C.ar      1 <0>        -0.0358
      8 C7         -2.3769    0.0316    0.0249 C.ar      1 <0>        -0.1658
      9 C8         -2.3328    1.4344    0.0316 C.ar      1 <0>         0.4000
     10 N2         -1.2010    2.1037    0.0297 N.ar      1 <0>        -0.5101
     11 C9         -0.0179    1.4667    0.0101 C.ar      1 <0>         0.3011
     12 N3          1.2417    1.8611    0.0002 N.2       1 <0>        -0.2980
     13 N4         -3.5261    2.1400    0.0468 N.pl3     1 <0>        -0.4697
     14 C10        -4.3603    1.7387    1.1867 C.3       1 <0>         0.0641
     15 C11        -5.7234    2.4277    1.0906 C.3       1 <0>        -0.1133
     16 C12        -5.5236    3.9458    1.0898 C.3       1 <0>        -0.0706
     17 C13        -4.6121    4.3322   -0.0783 C.3       1 <0>        -0.1186
     18 C14        -3.2812    3.5879    0.0517 C.3       1 <0>         0.0707
     19 C15        -6.8781    4.6398    0.9327 C.3       1 <0>        -0.1530
     20 C16        -7.7303    4.3578    2.1431 C.2       1 <0>         0.4601
     21 O1         -7.2987    3.6722    3.0395 O.co2     1 <0>        -0.6384
     22 C17        -1.2699   -2.2035    0.0019 C.3       1 <0>         0.3142
     23 F1         -2.4306   -2.6355   -0.6488 F         1 <0>        -0.1911
     24 F2         -0.1470   -2.6964   -0.6714 F         1 <0>        -0.1980
     25 H1          5.1529    0.6791    1.3952 H         1 <0>         0.0826
     26 H2          3.6844    1.4815    2.0020 H         1 <0>         0.0697
     27 H3          3.7271   -0.2903    1.8375 H         1 <0>         0.0647
     28 H4          3.8735    1.7145   -0.4595 H         1 <0>         0.1121
     29 H5          3.6944   -0.3066   -1.8849 H         1 <0>         0.0701
     30 H6          5.1586   -0.3651   -0.8746 H         1 <0>         0.0879
     31 H7          3.7329   -1.3345   -0.4323 H         1 <0>         0.0691
     32 H8          1.7067   -1.3925   -0.0217 H         1 <0>         0.1866
     33 H9         -3.3314   -0.4736    0.0313 H         1 <0>         0.1507
     34 H10        -4.4981    0.6575    1.1731 H         1 <0>         0.0807
     35 H11        -3.8705    2.0306    2.1157 H         1 <0>         0.0509
     36 H12        -6.3367    2.1418    1.9451 H         1 <0>         0.1035
     37 H13        -6.2197    2.1255    0.1683 H         1 <0>         0.0618
     38 H14        -5.0626    4.2530    2.0286 H         1 <0>         0.0688
     39 H15        -4.4315    5.4069   -0.0589 H         1 <0>         0.0683
     40 H16        -5.0906    4.0605   -1.0193 H         1 <0>         0.0675
     41 H17        -2.7965    3.8711    0.9860 H         1 <0>         0.0525
     42 H18        -2.6354    3.8499   -0.7864 H         1 <0>         0.0832
     43 H19        -6.7266    5.7150    0.8374 H         1 <0>         0.0627
     44 H20        -7.3781    4.2628    0.0405 H         1 <0>         0.0637
     45 H21        -1.2696   -2.5726    1.0275 H         1 <0>         0.1298
     46 O2         -8.9690    4.8684    2.2254 O.co2     1 <0>        -0.7789
@<TRIPOS>BOND
     1    1    2 1
     2    1   25 1
     3    1   26 1
     4    1   27 1
     5    2    3 1
     6    2    4 1
     7    2   28 1
     8    3   29 1
     9    3   30 1
    10    3   31 1
    11    4   12 1
    12    4    5 1
    13    5    6 2
    14    5   32 1
    15    6   11 ar
    16    6    7 ar
    17    7    8 ar
    18    7   22 1
    19    8    9 ar
    20    8   33 1
    21    9   10 ar
    22    9   13 1
    23   10   11 ar
    24   11   12 2
    25   13   18 1
    26   13   14 1
    27   14   15 1
    28   14   34 1
    29   14   35 1
    30   15   16 1
    31   15   36 1
    32   15   37 1
    33   16   17 1
    34   16   19 1
    35   16   38 1
    36   17   18 1
    37   17   39 1
    38   17   40 1
    39   18   41 1
    40   18   42 1
    41   19   20 1
    42   19   43 1
    43   19   44 1
    44   20   21 2
    45   20   46 1
    46   22   23 1
    47   22   24 1
    48   22   45 1
@<TRIPOS>MOLECULE
ZINC36881541
   31    31     0     0     0
SMALL
USER_CHARGES

@<TRIPOS>ATOM
      1 C1         -0.0168    1.3849    0.0097 C.ar      1 <0>        -0.1948
      2 C2          1.1707    2.0901    0.0021 C.ar      1 <0>         0.0169
      3 C3          2.3774    1.4150   -0.0135 C.ar      1 <0>        -0.7459
      4 C4          2.3998    0.0323   -0.0211 C.ar      1 <0>         0.0339
      5 C5          1.2161   -0.6790   -0.0137 C.ar      1 <0>        -0.2704
      6 C6          0.0021   -0.0041    0.0020 C.ar      1 <0>         0.3347
      7 N1         -1.1970   -0.7204    0.0101 N.2       1 <0>        -1.0837
      8 S1         -1.1724   -2.3762    0.0010 S.o2      1 <0>         2.5312
      9 O1         -0.5765   -2.7231   -1.2415 O.2       1 <0>        -1.0161
     10 O2         -0.5519   -2.7364    1.2276 O.2       1 <0>        -1.0165
     11 C7         -2.9182   -2.8684    0.0157 C.3       1 <0>        -0.6015
     12 C8         -3.0177   -4.3952    0.0084 C.3       1 <0>        -0.1227
     13 C9         -4.4902   -4.8104    0.0208 C.3       1 <0>        -0.0200
     14 Cl1        -4.6075   -6.6095    0.0124 Cl        1 <0>        -0.1922
     15 S2          3.8900    2.3186   -0.0243 S.o2      1 <0>         2.4774
     16 O3          4.8283    1.4478   -0.6410 O.2       1 <0>        -0.9104
     17 O4          3.5621    3.5675   -0.6176 O.2       1 <0>        -0.9105
     18 C10         4.3080    2.5489    1.7259 C.3       1 <0>        -0.2215
     19 F1          3.2842    3.2610    2.3600 F         1 <0>        -0.1679
     20 F2          4.4557    1.2998    2.3383 F         1 <0>        -0.1672
     21 H1         -0.9589    1.9127    0.0260 H         1 <0>         0.1243
     22 H2          1.1567    3.1700    0.0080 H         1 <0>         0.1269
     23 H3          3.3440   -0.4918   -0.0333 H         1 <0>         0.1242
     24 H4          1.2342   -1.7588   -0.0200 H         1 <0>         0.1124
     25 H5         -3.3985   -2.4773    0.9126 H         1 <0>         0.1263
     26 H6         -3.4162   -2.4677   -0.8673 H         1 <0>         0.1264
     27 H7         -2.5375   -4.7864   -0.8885 H         1 <0>         0.0867
     28 H8         -2.5198   -4.7959    0.8914 H         1 <0>         0.0866
     29 H9         -4.9705   -4.4192    0.9178 H         1 <0>         0.0966
     30 H10        -4.9882   -4.4097   -0.8621 H         1 <0>         0.0967
     31 H11         5.2416    3.1057    1.8063 H         1 <0>         0.1402
@<TRIPOS>BOND
     1    1    6 ar
     2    1    2 ar
     3    1   21 1
     4    2    3 ar
     5    2   22 1
     6    3    4 ar
     7    3   15 1
     8    4    5 ar
     9    4   23 1
    10    5    6 ar
    11    5   24 1
    12    6    7 1
    13    7    8 1
    14    8    9 2
    15    8   10 2
    16    8   11 1
    17   11   12 1
    18   11   25 1
    19   11   26 1
    20   12   13 1
    21   12   27 1
    22   12   28 1
    23   13   14 1
    24   13   29 1
    25   13   30 1
    26   15   16 2
    27   15   17 2
    28   15   18 1
    29   18   19 1
    30   18   20 1
    31   18   31 1
@<TRIPOS>MOLECULE
ZINC40945528
   34    36     0     0     0
SMALL
USER_CHARGES

@<TRIPOS>ATOM
      1 C1         -0.0173    1.4248    0.0099 C.3       1 <0>         0.0327
      2 O1          0.0021   -0.0041    0.0020 O.3       1 <0>        -0.3866
      3 C2          0.6734   -0.5824    1.1231 C.3       1 <0>         0.1853
      4 C3          0.6333   -2.0848    1.0124 C.2       1 <0>        -0.0500
      5 N1          1.4830   -2.9147    0.4422 N.2       1 <0>        -0.2069
      6 N2          1.3025   -4.1629    0.4366 N.2       1 <0>        -0.4315
      7 C4          0.2416   -4.7184    1.0069 C.2       1 <0>         0.4278
      8 S1         -0.5787   -3.2517    1.6250 S.3       1 <0>        -0.1135
      9 N3         -0.1246   -6.0528    1.1016 N.2       1 <0>        -1.0132
     10 S2          0.8373   -7.2248    0.4355 S.o2      1 <0>         2.6380
     11 O2          0.7999   -7.0296   -0.9715 O.2       1 <0>        -0.9995
     12 O3          2.0518   -7.2210    1.1731 O.2       1 <0>        -0.9984
     13 C5          0.0622   -8.7756    0.7496 C.ar      1 <0>        -0.6223
     14 C6          0.3657   -9.4703    1.9192 C.ar      1 <0>        -0.0314
     15 C7         -0.2149  -10.6706    2.1919 C.ar      1 <0>        -0.1318
     16 C8         -1.1350  -11.2205    1.2830 C.ar      1 <0>        -0.0182
     17 C9         -1.7552  -12.4572    1.5304 C.ar      1 <0>        -0.1180
     18 C10        -2.6415  -12.9585    0.6276 C.ar      1 <0>        -0.1047
     19 C11        -2.9453  -12.2636   -0.5418 C.ar      1 <0>        -0.1320
     20 C12        -2.3643  -11.0636   -0.8147 C.ar      1 <0>        -0.0865
     21 C13        -1.4439  -10.5139    0.0940 C.ar      1 <0>        -0.0781
     22 C14        -0.8280   -9.2746   -0.1507 C.ar      1 <0>         0.0101
     23 H1          1.0053    1.8021    0.0021 H         1 <0>         0.0410
     24 H2         -0.5445    1.7859   -0.8732 H         1 <0>         0.0836
     25 H3         -0.5275    1.7763    0.9067 H         1 <0>         0.0396
     26 H4          1.7103   -0.2468    1.1385 H         1 <0>         0.0755
     27 H5          0.1775   -0.2725    2.0430 H         1 <0>         0.0670
     28 H6          1.0724   -9.0500    2.6193 H         1 <0>         0.1390
     29 H7          0.0305  -11.1980    3.1019 H         1 <0>         0.1325
     30 H8         -1.5293  -13.0070    2.4321 H         1 <0>         0.1280
     31 H9         -3.1164  -13.9092    0.8199 H         1 <0>         0.1226
     32 H10        -3.6520  -12.6840   -1.2420 H         1 <0>         0.1236
     33 H11        -2.6090  -10.5366   -1.7251 H         1 <0>         0.1312
     34 H12        -1.0570   -8.7229   -1.0505 H         1 <0>         0.1449
@<TRIPOS>BOND
     1    1    2 1
     2    1   23 1
     3    1   24 1
     4    1   25 1
     5    2    3 1
     6    3    4 1
     7    3   26 1
     8    3   27 1
     9    4    8 1
    10    4    5 2
    11    5    6 1
    12    6    7 2
    13    7    8 1
    14    7    9 1
    15    9   10 1
    16   10   11 2
    17   10   12 2
    18   10   13 1
    19   13   22 ar
    20   13   14 ar
    21   14   15 ar
    22   14   28 1
    23   15   16 ar
    24   15   29 1
    25   16   21 ar
    26   16   17 ar
    27   17   18 ar
    28   17   30 1
    29   18   19 ar
    30   18   31 1
    31   19   20 ar
    32   19   32 1
    33   20   21 ar
    34   20   33 1
    35   21   22 ar
    36   22   34 1
@<TRIPOS>MOLECULE
ZINC62371403
   49    50     0     0     0
SMALL
USER_CHARGES

@<TRIPOS>ATOM
      1 C1          1.1742    1.3794   -0.3261 C.3       1 <0>        -0.0881
      2 C2          0.9154   -0.1029   -0.2428 C.ar      1 <0>        -0.2046
      3 C3          0.3455   -0.7650   -1.3148 C.ar      1 <0>        -0.0785
      4 C4          0.1071   -2.1234   -1.2418 C.ar      1 <0>        -0.1852
      5 C5          0.4403   -2.8245   -0.0899 C.ar      1 <0>         0.2788
      6 C6          1.0126   -2.1563    0.9851 C.ar      1 <0>        -0.2570
      7 C7          1.2536   -0.7989    0.9033 C.ar      1 <0>        -0.0668
      8 N1          0.2001   -4.1983   -0.0125 N.2       1 <0>        -1.0998
      9 S1          0.5981   -5.0324    1.3616 S.o2      1 <0>         2.5277
     10 O1          2.0123   -4.9281    1.4522 O.2       1 <0>        -1.0228
     11 O2         -0.2351   -4.4832    2.3732 O.2       1 <0>        -1.0294
     12 C8          0.1187   -6.7484    1.0206 C.3       1 <0>        -0.5805
     13 C9          0.4440   -7.6197    2.2354 C.3       1 <0>        -0.0987
     14 H1         -0.0354   -7.2023    3.1209 H         1 <0>         0.0977
     15 C10         1.9591   -7.6569    2.4454 C.3       1 <0>        -0.1658
     16 C11        -0.0651   -9.0186    2.0010 C.2       1 <0>         0.5331
     17 O3         -0.2513   -9.4146    0.8699 O.2       1 <0>        -0.5195
     18 N2         -0.3134   -9.8298    3.0483 N.am      1 <0>        -0.6126
     19 C12        -0.2143   -9.3342    4.4304 C.3       1 <0>         0.0639
     20 C13         0.6649  -10.3030    5.2294 C.3       1 <0>         0.0470
     21 O4          0.1680  -11.6335    5.0661 O.3       1 <0>        -0.3767
     22 C14         0.2103  -12.1129    3.7199 C.3       1 <0>         0.0582
     23 C15        -0.6977  -11.2354    2.8434 C.3       1 <0>         0.1337
     24 C16        -2.1597  -11.4341    3.2483 C.3       1 <0>        -0.1512
     25 C17        -0.5143  -11.6104    1.3715 C.3       1 <0>        -0.1337
     26 H2          2.1702    1.5520   -0.7338 H         1 <0>         0.0483
     27 H3          0.4307    1.8421   -0.9751 H         1 <0>         0.0496
     28 H4          1.1088    1.8161    0.6704 H         1 <0>         0.0488
     29 H5          0.0864   -0.2192   -2.2099 H         1 <0>         0.1022
     30 H6         -0.3384   -2.6398   -2.0792 H         1 <0>         0.1096
     31 H7          1.2726   -2.6985    1.8823 H         1 <0>         0.0987
     32 H8          1.7026   -0.2796    1.7370 H         1 <0>         0.0988
     33 H9         -0.9513   -6.7931    0.8175 H         1 <0>         0.1224
     34 H10         0.6688   -7.1139    0.1535 H         1 <0>         0.1307
     35 H11         2.1980   -8.3578    3.2452 H         1 <0>         0.0623
     36 H12         2.4458   -7.9771    1.5242 H         1 <0>         0.0729
     37 H13         2.3128   -6.6621    2.7164 H         1 <0>         0.0915
     38 H14         0.2366   -8.3419    4.4331 H         1 <0>         0.1005
     39 H15        -1.2080   -9.2877    4.8758 H         1 <0>         0.0811
     40 H16         1.6904  -10.2500    4.8639 H         1 <0>         0.0581
     41 H17         0.6393  -10.0318    6.2848 H         1 <0>         0.1084
     42 H18         1.2341  -12.0665    3.3489 H         1 <0>         0.0566
     43 H19        -0.1424  -13.1439    3.6894 H         1 <0>         0.1042
     44 H20        -2.7960  -10.7929    2.6384 H         1 <0>         0.0601
     45 H21        -2.4406  -12.4761    3.0952 H         1 <0>         0.0669
     46 H22        -2.2840  -11.1750    4.2997 H         1 <0>         0.0631
     47 H23         0.4841  -11.3202    1.0443 H         1 <0>         0.0656
     48 H24        -0.6369  -12.6869    1.2528 H         1 <0>         0.0472
     49 H25        -1.2594  -11.0912    0.7687 H         1 <0>         0.0836
@<TRIPOS>BOND
     1    1    2 1
     2    1   26 1
     3    1   27 1
     4    1   28 1
     5    2    7 ar
     6    2    3 ar
     7    3    4 ar
     8    3   29 1
     9    4    5 ar
    10    4   30 1
    11    5    6 ar
    12    5    8 1
    13    6    7 ar
    14    6   31 1
    15    7   32 1
    16    8    9 1
    17    9   10 2
    18    9   11 2
    19    9   12 1
    20   12   13 1
    21   12   33 1
    22   12   34 1
    23   13   14 1
    24   13   15 1
    25   13   16 1
    26   15   35 1
    27   15   36 1
    28   15   37 1
    29   16   17 2
    30   16   18 am
    31   18   23 1
    32   18   19 1
    33   19   20 1
    34   19   38 1
    35   19   39 1
    36   20   21 1
    37   20   40 1
    38   20   41 1
    39   21   22 1
    40   22   23 1
    41   22   42 1
    42   22   43 1
    43   23   24 1
    44   23   25 1
    45   24   44 1
    46   24   45 1
    47   24   46 1
    48   25   47 1
    49   25   48 1
    50   25   49 1
