@<TRIPOS>MOLECULE
3NF7-CIW
 35 38 0 0 0
SMALL
SF_CHARGES


@<TRIPOS>ATOM
1    C         6.2140  -28.7590   -8.7220  C.2        1 SUBUNIT      0.0385
2    C         7.3450  -29.2110   -9.3560  C.2        1 SUBUNIT     -0.0930
3    C         8.2900  -28.3370   -9.8450  C.2        1 SUBUNIT     -0.1024
4    C         8.0220  -27.0070   -9.6490  C.2        1 SUBUNIT      0.1194
5    C         6.9010  -26.5350   -9.0230  C.2        1 SUBUNIT     -0.0421
6    C         5.9610  -27.4150   -8.5420  C.2        1 SUBUNIT     -0.1052
7    C         6.8880  -25.0620   -8.9930  C.3        1 SUBUNIT     -0.0348
8    C         8.1970  -24.7470   -9.6650  C.2        1 SUBUNIT      0.6408
9    O         8.6630  -23.6260   -9.7760  O.2        1 SUBUNIT     -0.5387
10   N         8.7950  -25.9440  -10.0450  N.am       1 SUBUNIT     -0.4239
11   C         9.7240  -26.0660  -11.1230  C.3        1 SUBUNIT      0.1812
12   C        11.0130  -26.5570  -10.5780  C.2        1 SUBUNIT     -0.0479
13   C        11.0930  -26.7750   -9.2020  C.2        1 SUBUNIT     -0.1029
14   C        12.2530  -27.2570   -8.6350  C.2        1 SUBUNIT     -0.1151
15   C        13.3160  -27.4880   -9.4830  C.2        1 SUBUNIT      0.1390
16   C        13.2200  -27.2590  -10.8250  C.2        1 SUBUNIT      0.1341
17   C        12.0860  -26.7930  -11.4270  C.2        1 SUBUNIT     -0.0622
18   C        12.1100  -26.6030  -12.9200  C.2        1 SUBUNIT      0.7831
19   O        12.8590  -25.6980  -13.3460  O.co2      1 SUBUNIT     -0.8942
20   O        11.4520  -27.3380  -13.6910  O.co2      1 SUBUNIT     -0.8942
21   O        14.3770  -27.5770  -11.4840  O.3        1 SUBUNIT     -0.3993
22   C        15.2190  -28.0880  -10.4480  C.3        1 SUBUNIT      0.4582
23   O        14.5820  -27.9750   -9.1500  O.3        1 SUBUNIT     -0.3978
24   Cl        5.0930  -29.8990   -8.1100  Cl         1 SUBUNIT     -0.0918
25   H         7.4946  -30.2702   -9.4724  H          1 SUBUNIT      0.1219
26   H         9.1800  -28.6733  -10.3476  H          1 SUBUNIT      0.1227
27   H         5.0696  -27.0697   -8.0481  H          1 SUBUNIT      0.1232
28   H         6.0376  -24.6602   -9.5537  H          1 SUBUNIT      0.0581
29   H         6.8591  -24.6853   -7.9653  H          1 SUBUNIT      0.0581
30   H         9.3316  -26.7744  -11.8601  H          1 SUBUNIT      0.0438
31   H         9.8618  -25.0872  -11.5941  H          1 SUBUNIT      0.0438
32   H        10.2453  -26.5670   -8.5728  H          1 SUBUNIT      0.1204
33   H        12.3257  -27.4446   -7.5780  H          1 SUBUNIT      0.1191
34   H        15.4328  -29.1420  -10.6537  H          1 SUBUNIT      0.0202
35   H        16.1550  -27.5198  -10.4405  H          1 SUBUNIT      0.0202
@<TRIPOS>BOND
     1    1    2 1
     2    1    6 2
     3    1   24 1
     4    2    3 2
     5    3    4 1
     6    4    5 2
     7    4   10 1
     8    5    6 1
     9    5    7 1
    10    7    8 1
    11    8    9 2
    12    8   10 1
    13   10   11 1
    14   11   12 1
    15   12   13 1
    16   12   17 2
    17   13   14 2
    18   14   15 1
    19   15   16 2
    20   15   23 1
    21   16   17 1
    22   16   21 1
    23   17   18 1
    24   18   19 2
    25   18   20 1
    26   21   22 1
    27   22   23 1
    28    2   25 1
    29    3   26 1
    30    6   27 1
    31    7   28 1
    32    7   29 1
    33   11   30 1
    34   11   31 1
    35   13   32 1
    36   14   33 1
    37   22   34 1
    38   22   35 1
