@<TRIPOS>MOLECULE
CHEMBL178616
   70    73     0     0     0
SMALL
USER_CHARGES

@<TRIPOS>ATOM
      1 C1         -0.1676    1.1606   -0.0343 C.3       1 <0>         0.0236
      2 O1         -0.2006   -0.2615   -0.1709 O.3       1 <0>        -0.3022
      3 C2          0.4295   -0.7926   -1.2527 C.ar      1 <0>         0.1063
      4 C3          1.0703    0.0364   -2.1593 C.ar      1 <0>        -0.1588
      5 C4          1.7108   -0.5051   -3.2582 C.ar      1 <0>        -0.1063
      6 C5          1.7135   -1.8735   -3.4558 C.ar      1 <0>        -0.0838
      7 C6          1.0757   -2.7062   -2.5553 C.ar      1 <0>        -0.1715
      8 C7          0.4371   -2.1703   -1.4484 C.ar      1 <0>         0.1137
      9 O2         -0.1857   -2.9886   -0.5584 O.3       1 <0>        -0.2949
     10 C8         -0.1371   -4.3919   -0.8234 C.3       1 <0>         0.1002
     11 C9         -0.8749   -5.1337    0.2613 C.ar      1 <0>        -0.0973
     12 C10        -0.2011   -5.5532    1.3930 C.ar      1 <0>        -0.0953
     13 C11        -0.8778   -6.2336    2.3880 C.ar      1 <0>        -0.1242
     14 C12        -2.2285   -6.4942    2.2514 C.ar      1 <0>        -0.1084
     15 C13        -2.9025   -6.0740    1.1200 C.ar      1 <0>        -0.1219
     16 C14        -2.2267   -5.3898    0.1270 C.ar      1 <0>        -0.0931
     17 C15         2.4073    0.3981   -4.2432 C.3       1 <0>         0.1704
     18 H1          2.5305    1.3881   -3.8042 H         1 <0>         0.1152
     19 C16         1.5804    0.5046   -5.4986 C.2       1 <0>         0.5131
     20 O3          1.8696   -0.1569   -6.4731 O.2       1 <0>        -0.5330
     21 N1          0.5197    1.3351   -5.5384 N.am      1 <0>        -0.6766
     22 C17        -0.2841    1.4387   -6.7589 C.3       1 <0>         0.1112
     23 H2         -0.3330    0.4645   -7.2455 H         1 <0>         0.0941
     24 C18        -1.6765    1.8945   -6.4061 C.ar      1 <0>        -0.0613
     25 C19        -1.8616    2.8699   -5.4442 C.ar      1 <0>        -0.1130
     26 C20        -3.1389    3.2880   -5.1206 C.ar      1 <0>        -0.1202
     27 C21        -4.2310    2.7309   -5.7593 C.ar      1 <0>        -0.1300
     28 C22        -4.0459    1.7562   -6.7218 C.ar      1 <0>        -0.1181
     29 C23        -2.7684    1.3411   -7.0484 C.ar      1 <0>        -0.1060
     30 C24         0.3491    2.4362   -7.6942 C.2       1 <0>         0.5009
     31 O4          0.2215    2.3076   -8.8999 O.co2     1 <0>        -0.6782
     32 O5          0.9890    3.3719   -7.2453 O.co2     1 <0>        -0.6845
     33 N2          3.7225   -0.1581   -4.5704 N.pl3     1 <0>        -0.6815
     34 C25         4.8217    0.1392   -3.7715 C.ar      1 <0>         0.3001
     35 C26         4.6487    0.8548   -2.5903 C.ar      1 <0>        -0.1989
     36 C27         5.7345    1.1501   -1.7976 C.ar      1 <0>        -0.0008
     37 C28         7.0114    0.7308   -2.1797 C.ar      1 <0>        -0.2395
     38 C29         7.1821    0.0126   -3.3660 C.ar      1 <0>        -0.0027
     39 C30         6.0919   -0.2844   -4.1520 C.ar      1 <0>        -0.1937
     40 C31         8.1783    1.0465   -1.3315 C.cat     1 <0>         0.6041
     41 N3          9.3958    0.6459   -1.6972 N.pl3     1 <0>        -0.7768
     42 N4          8.0141    1.7320   -0.2004 N.pl3     1 <0>        -0.7767
     43 H3          0.8674    1.4949    0.0363 H         1 <0>         0.0530
     44 H4         -0.6394    1.6200   -0.9029 H         1 <0>         0.0593
     45 H5         -0.7058    1.4515    0.8679 H         1 <0>         0.1023
     46 H6          1.0691    1.1057   -2.0077 H         1 <0>         0.1386
     47 H7          2.2147   -2.2927   -4.3157 H         1 <0>         0.1287
     48 H8          1.0789   -3.7747   -2.7121 H         1 <0>         0.1381
     49 H9         -0.6052   -4.5963   -1.7863 H         1 <0>         0.0730
     50 H10         0.9016   -4.7215   -0.8470 H         1 <0>         0.0708
     51 H11         0.8542   -5.3496    1.4998 H         1 <0>         0.1224
     52 H12        -0.3512   -6.5620    3.2719 H         1 <0>         0.1250
     53 H13        -2.7571   -7.0264    3.0284 H         1 <0>         0.1249
     54 H14        -3.9577   -6.2778    1.0131 H         1 <0>         0.1265
     55 H15        -2.7541   -5.0582   -0.7552 H         1 <0>         0.1252
     56 H16         0.2884    1.8642   -4.7590 H         1 <0>         0.3940
     57 H17        -1.0083    3.3051   -4.9453 H         1 <0>         0.1187
     58 H18        -3.2835    4.0495   -4.3687 H         1 <0>         0.1189
     59 H19        -5.2290    3.0571   -5.5059 H         1 <0>         0.1183
     60 H20        -4.8992    1.3207   -7.2205 H         1 <0>         0.1208
     61 H21        -2.6236    0.5822   -7.8030 H         1 <0>         0.1232
     62 H22         3.8268   -0.7338   -5.3442 H         1 <0>         0.4235
     63 H23         3.6615    1.1790   -2.2956 H         1 <0>         0.1432
     64 H24         5.5997    1.7057   -0.8813 H         1 <0>         0.1323
     65 H25         8.1679   -0.3124   -3.6639 H         1 <0>         0.1332
     66 H26         6.2226   -0.8433   -5.0669 H         1 <0>         0.1460
     67 H27         9.5153    0.1470   -2.5204 H         1 <0>         0.4411
     68 H28         7.1281    2.0235    0.0657 H         1 <0>         0.4409
     69 H29         8.7807    1.9393    0.3566 H         1 <0>         0.4271
     70 H30        10.1623    0.8532   -1.1401 H         1 <0>         0.4271
@<TRIPOS>BOND
     1    1    2 1
     2    1   43 1
     3    1   44 1
     4    1   45 1
     5    2    3 1
     6    3    8 ar
     7    3    4 ar
     8    4    5 ar
     9    4   46 1
    10    5    6 ar
    11    5   17 1
    12    6    7 ar
    13    6   47 1
    14    7    8 ar
    15    7   48 1
    16    8    9 1
    17    9   10 1
    18   10   11 1
    19   10   49 1
    20   10   50 1
    21   11   16 ar
    22   11   12 ar
    23   12   13 ar
    24   12   51 1
    25   13   14 ar
    26   13   52 1
    27   14   15 ar
    28   14   53 1
    29   15   16 ar
    30   15   54 1
    31   16   55 1
    32   17   18 1
    33   17   19 1
    34   17   33 1
    35   19   20 2
    36   19   21 am
    37   21   22 1
    38   21   56 1
    39   22   23 1
    40   22   24 1
    41   22   30 1
    42   24   29 ar
    43   24   25 ar
    44   25   26 ar
    45   25   57 1
    46   26   27 ar
    47   26   58 1
    48   27   28 ar
    49   27   59 1
    50   28   29 ar
    51   28   60 1
    52   29   61 1
    53   30   31 2
    54   30   32 1
    55   33   34 1
    56   33   62 1
    57   34   39 ar
    58   34   35 ar
    59   35   36 ar
    60   35   63 1
    61   36   37 ar
    62   36   64 1
    63   37   38 ar
    64   37   40 1
    65   38   39 ar
    66   38   65 1
    67   39   66 1
    68   40   41 2
    69   40   42 1
    70   41   67 1
    71   41   70 1
    72   42   68 1
    73   42   69 1
@<TRIPOS>MOLECULE
CHEMBL194689
   69    73     0     0     0
SMALL
USER_CHARGES

@<TRIPOS>ATOM
      1 C1          1.4328   -1.3121    1.7122 C.3       1 <0>        -0.0666
      2 N1          1.6019   -1.0533    3.1483 N.4       1 <0>        -0.3895
      3 C2          0.5992   -1.8239    3.9142 C.3       1 <0>        -0.0107
      4 C3          0.2091   -0.9011    5.0957 C.3       1 <0>        -0.1441
      5 C4          0.2311    0.4963    4.4223 C.3       1 <0>        -0.1350
      6 C5          1.3998    0.3815    3.4211 C.3       1 <0>         0.0164
      7 C6          1.0482    1.1134    2.1244 C.3       1 <0>        -0.1740
      8 C7          2.3322    1.4435    1.3607 C.3       1 <0>         0.0838
      9 N2          3.0980    2.4473    2.1039 N.am      1 <0>        -0.6128
     10 C8          4.1989    2.0307    2.9762 C.3       1 <0>         0.1496
     11 C9          5.4823    2.0027    2.1867 C.ar      1 <0>        -0.1084
     12 C10         5.8584    0.8331    1.5288 C.ar      1 <0>        -0.0796
     13 C11         7.0112    0.7741    0.8072 C.ar      1 <0>        -0.1079
     14 C12         7.8376    1.9070    0.7210 C.ar      1 <0>        -0.0109
     15 C13         9.0348    1.8774   -0.0174 C.ar      1 <0>        -0.0823
     16 C14         9.8175    2.9843   -0.0865 C.ar      1 <0>        -0.0882
     17 C15         9.4488    4.1703    0.5726 C.ar      1 <0>        -0.1497
     18 C16         8.2768    4.2314    1.3066 C.ar      1 <0>        -0.0159
     19 C17         7.4550    3.0972    1.3900 C.ar      1 <0>        -0.0655
     20 C18         6.2543    3.1215    2.1221 C.ar      1 <0>        -0.0595
     21 C19        10.3203    5.3618    0.4813 C.cat     1 <0>         0.5995
     22 N3         11.6360    5.2150    0.3361 N.pl3     1 <0>        -0.7550
     23 N4          9.7894    6.5816    0.5442 N.pl3     1 <0>        -0.7587
     24 C20         2.7897    3.7539    1.9852 C.2       1 <0>         0.5763
     25 O1          3.4722    4.5926    2.5415 O.2       1 <0>        -0.5087
     26 C21         1.6249    4.1665    1.1806 C.ar      1 <0>        -0.1321
     27 C22         1.5431    3.8254   -0.1615 C.ar      1 <0>        -0.0796
     28 C23         0.4484    4.2111   -0.9246 C.ar      1 <0>        -0.1306
     29 C24        -0.5723    4.9320   -0.3806 C.ar      1 <0>        -0.0666
     30 C25        -0.5316    5.2998    0.9754 C.ar      1 <0>        -0.0554
     31 C26         0.5732    4.9109    1.7712 C.ar      1 <0>        -0.0152
     32 C27         0.6102    5.2739    3.1243 C.ar      1 <0>        -0.1200
     33 C28        -0.4180    5.9903    3.6592 C.ar      1 <0>        -0.0950
     34 C29        -1.5088    6.3686    2.8797 C.ar      1 <0>        -0.1106
     35 C30        -1.5718    6.0439    1.5590 C.ar      1 <0>        -0.0976
     36 H1          2.1562   -0.7223    1.1491 H         1 <0>         0.1266
     37 H2          1.5937   -2.3715    1.5126 H         1 <0>         0.1268
     38 H3          0.4232   -1.0345    1.4094 H         1 <0>         0.1310
     39 H4         -0.2718   -2.0350    3.2939 H         1 <0>         0.1345
     40 H5          1.0357   -2.7513    4.2851 H         1 <0>         0.1371
     41 H6         -0.7878   -1.1407    5.4656 H         1 <0>         0.1197
     42 H7          0.9458   -0.9600    5.8969 H         1 <0>         0.0992
     43 H8         -0.7064    0.6872    3.9000 H         1 <0>         0.1018
     44 H9          0.4291    1.2757    5.1581 H         1 <0>         0.1123
     45 H10         2.3040    0.8072    3.8563 H         1 <0>         0.1368
     46 H11         0.4128    0.4768    1.5087 H         1 <0>         0.1126
     47 H12         0.5183    2.0363    2.3602 H         1 <0>         0.1171
     48 H13         2.9309    0.5395    1.2486 H         1 <0>         0.0866
     49 H14         2.0787    1.8358    0.3759 H         1 <0>         0.1105
     50 H15         4.2953    2.7361    3.8015 H         1 <0>         0.1062
     51 H16         3.9932    1.0357    3.3708 H         1 <0>         0.0812
     52 H17         5.2257   -0.0399    1.5926 H         1 <0>         0.1252
     53 H18         7.2895   -0.1398    0.3034 H         1 <0>         0.1427
     54 H19         9.3314    0.9737   -0.5291 H         1 <0>         0.1508
     55 H20        10.7354    2.9535   -0.6547 H         1 <0>         0.1409
     56 H21         7.9976    5.1444    1.8116 H         1 <0>         0.1458
     57 H22         5.9484    4.0223    2.6332 H         1 <0>         0.1458
     58 H23        12.2075    5.9964    0.2762 H         1 <0>         0.4352
     59 H24         8.8311    6.6886    0.6500 H         1 <0>         0.4455
     60 H25        10.3609    7.3630    0.4843 H         1 <0>         0.4354
     61 H26         2.3385    3.2548   -0.6176 H         1 <0>         0.1270
     62 H27         0.4055    3.9350   -1.9679 H         1 <0>         0.1340
     63 H28        -1.4137    5.2215   -0.9926 H         1 <0>         0.1372
     64 H29         1.4496    4.9869    3.7403 H         1 <0>         0.1263
     65 H30        -0.3871    6.2684    4.7023 H         1 <0>         0.1289
     66 H31        -2.3115    6.9359    3.3271 H         1 <0>         0.1320
     67 H32        -2.4231    6.3444    0.9662 H         1 <0>         0.1358
     68 H33        12.0227    4.3266    0.2903 H         1 <0>         0.4471
     69 H34         2.5296   -1.3263    3.4364 H         1 <0>         0.4245
@<TRIPOS>BOND
     1    1    2 1
     2    1   36 1
     3    1   37 1
     4    1   38 1
     5    2    6 1
     6    2    3 1
     7    2   69 1
     8    3    4 1
     9    3   39 1
    10    3   40 1
    11    4    5 1
    12    4   41 1
    13    4   42 1
    14    5    6 1
    15    5   43 1
    16    5   44 1
    17    6    7 1
    18    6   45 1
    19    7    8 1
    20    7   46 1
    21    7   47 1
    22    8    9 1
    23    8   48 1
    24    8   49 1
    25    9   10 1
    26    9   24 am
    27   10   11 1
    28   10   50 1
    29   10   51 1
    30   11   20 ar
    31   11   12 ar
    32   12   13 ar
    33   12   52 1
    34   13   14 ar
    35   13   53 1
    36   14   19 ar
    37   14   15 ar
    38   15   16 ar
    39   15   54 1
    40   16   17 ar
    41   16   55 1
    42   17   18 ar
    43   17   21 1
    44   18   19 ar
    45   18   56 1
    46   19   20 ar
    47   20   57 1
    48   21   22 2
    49   21   23 1
    50   22   58 1
    51   22   68 1
    52   23   59 1
    53   23   60 1
    54   24   25 2
    55   24   26 1
    56   26   31 ar
    57   26   27 ar
    58   27   28 ar
    59   27   61 1
    60   28   29 ar
    61   28   62 1
    62   29   30 ar
    63   29   63 1
    64   30   35 ar
    65   30   31 ar
    66   31   32 ar
    67   32   33 ar
    68   32   64 1
    69   33   34 ar
    70   33   65 1
    71   34   35 ar
    72   34   66 1
    73   35   67 1
@<TRIPOS>MOLECULE
CHEMBL194689__1
   69    73     0     0     0
SMALL
USER_CHARGES

@<TRIPOS>ATOM
      1 C1         -0.1148    1.0345    0.0895 C.3       1 <0>        -0.0558
      2 N1          0.0207   -0.4279    0.1201 N.4       1 <0>        -0.3922
      3 C2         -1.3146   -1.0485    0.1958 C.3       1 <0>        -0.0132
      4 C3         -1.3536   -1.8934    1.4865 C.3       1 <0>        -0.1421
      5 C4          0.1472   -2.1597    1.7755 C.3       1 <0>        -0.1371
      6 C5          0.7954   -0.8309    1.3132 C.3       1 <0>         0.0277
      7 C6          2.2634   -1.0543    0.9446 C.3       1 <0>        -0.1622
      8 C7          2.8852    0.2713    0.5005 C.3       1 <0>         0.0816
      9 N2          4.2908    0.0574    0.1476 N.am      1 <0>        -0.6061
     10 C8          4.6483   -0.3809   -1.2039 C.3       1 <0>         0.1495
     11 C9          4.8736    0.8245   -2.0798 C.ar      1 <0>        -0.1053
     12 C10         3.8023    1.3723   -2.7830 C.ar      1 <0>        -0.0786
     13 C11         3.9715    2.4609   -3.5827 C.ar      1 <0>        -0.1108
     14 C12         5.2436    3.0449   -3.7041 C.ar      1 <0>        -0.0117
     15 C13         5.4501    4.1707   -4.5223 C.ar      1 <0>        -0.0829
     16 C14         6.6881    4.7180   -4.6241 C.ar      1 <0>        -0.0888
     17 C15         7.7768    4.1747   -3.9195 C.ar      1 <0>        -0.1504
     18 C16         7.6059    3.0679   -3.1060 C.ar      1 <0>        -0.0153
     19 C17         6.3336    2.4880   -2.9884 C.ar      1 <0>        -0.0653
     20 C18         6.1191    1.3658   -2.1682 C.ar      1 <0>        -0.0606
     21 C19         9.1154    4.7905   -4.0489 C.cat     1 <0>         0.5994
     22 N3          9.4599    5.4035   -5.1799 N.pl3     1 <0>        -0.7551
     23 N4          9.9762    4.7319   -3.0344 N.pl3     1 <0>        -0.7588
     24 C20         5.2552    0.2638    1.0662 C.2       1 <0>         0.5735
     25 O1          6.4257    0.1673    0.7511 O.2       1 <0>        -0.5076
     26 C21         4.8909    0.6066    2.4533 C.ar      1 <0>        -0.1266
     27 C22         4.1422    1.7432    2.7215 C.ar      1 <0>        -0.0870
     28 C23         3.7958    2.0715    4.0260 C.ar      1 <0>        -0.1332
     29 C24         4.1791    1.2910    5.0755 C.ar      1 <0>        -0.0674
     30 C25         4.9387    0.1299    4.8507 C.ar      1 <0>        -0.0543
     31 C26         5.2967   -0.2246    3.5273 C.ar      1 <0>        -0.0158
     32 C27         6.0498   -1.3852    3.3040 C.ar      1 <0>        -0.1178
     33 C28         6.4232   -2.1609    4.3601 C.ar      1 <0>        -0.0943
     34 C29         6.0670   -1.8174    5.6622 C.ar      1 <0>        -0.1077
     35 C30         5.3466   -0.6905    5.9169 C.ar      1 <0>        -0.1002
     36 H1          0.8745    1.4903    0.0492 H         1 <0>         0.1195
     37 H2         -0.6863    1.3280   -0.7911 H         1 <0>         0.1269
     38 H3         -0.6333    1.3702    0.9876 H         1 <0>         0.1273
     39 H4         -2.0813   -0.2749    0.2356 H         1 <0>         0.1345
     40 H5         -1.4755   -1.6889   -0.6715 H         1 <0>         0.1329
     41 H6         -1.8092   -1.3310    2.3016 H         1 <0>         0.1008
     42 H7         -1.8858   -2.8297    1.3184 H         1 <0>         0.1155
     43 H8          0.3163   -2.3272    2.8392 H         1 <0>         0.1188
     44 H9          0.5153   -2.9995    1.1862 H         1 <0>         0.1007
     45 H10         0.7101   -0.0752    2.0941 H         1 <0>         0.1455
     46 H11         2.8019   -1.4355    1.8123 H         1 <0>         0.1197
     47 H12         2.3279   -1.7766    0.1308 H         1 <0>         0.0948
     48 H13         2.3467    0.6525   -0.3672 H         1 <0>         0.0754
     49 H14         2.8207    0.9936    1.3142 H         1 <0>         0.1073
     50 H15         5.5604   -0.9762   -1.1634 H         1 <0>         0.1047
     51 H16         3.8391   -0.9836   -1.6163 H         1 <0>         0.0925
     52 H17         2.8229    0.9262   -2.6923 H         1 <0>         0.1257
     53 H18         3.1317    2.8735   -4.1219 H         1 <0>         0.1416
     54 H19         4.6237    4.5992   -5.0697 H         1 <0>         0.1501
     55 H20         6.8389    5.5816   -5.2548 H         1 <0>         0.1405
     56 H21         8.4450    2.6537   -2.5669 H         1 <0>         0.1458
     57 H22         6.9392    0.9337   -1.6142 H         1 <0>         0.1460
     58 H23        10.3377    5.8074   -5.2647 H         1 <0>         0.4351
     59 H24         9.7253    4.2854   -2.2106 H         1 <0>         0.4455
     60 H25        10.8541    5.1357   -3.1192 H         1 <0>         0.4354
     61 H26         3.8258    2.3793    1.9080 H         1 <0>         0.1252
     62 H27         3.2127    2.9613    4.2120 H         1 <0>         0.1328
     63 H28         3.8989    1.5654    6.0818 H         1 <0>         0.1369
     64 H29         6.3326   -1.6636    2.2996 H         1 <0>         0.1275
     65 H30         7.0033   -3.0550    4.1852 H         1 <0>         0.1303
     66 H31         6.3748   -2.4489    6.4825 H         1 <0>         0.1327
     67 H32         5.0780   -0.4357    6.9315 H         1 <0>         0.1360
     68 H33         8.8329    5.4462   -5.9188 H         1 <0>         0.4471
     69 H34         0.4930   -0.7435   -0.7138 H         1 <0>         0.4215
@<TRIPOS>BOND
     1    1    2 1
     2    1   36 1
     3    1   37 1
     4    1   38 1
     5    2    6 1
     6    2    3 1
     7    2   69 1
     8    3    4 1
     9    3   39 1
    10    3   40 1
    11    4    5 1
    12    4   41 1
    13    4   42 1
    14    5    6 1
    15    5   43 1
    16    5   44 1
    17    6    7 1
    18    6   45 1
    19    7    8 1
    20    7   46 1
    21    7   47 1
    22    8    9 1
    23    8   48 1
    24    8   49 1
    25    9   10 1
    26    9   24 am
    27   10   11 1
    28   10   50 1
    29   10   51 1
    30   11   20 ar
    31   11   12 ar
    32   12   13 ar
    33   12   52 1
    34   13   14 ar
    35   13   53 1
    36   14   19 ar
    37   14   15 ar
    38   15   16 ar
    39   15   54 1
    40   16   17 ar
    41   16   55 1
    42   17   18 ar
    43   17   21 1
    44   18   19 ar
    45   18   56 1
    46   19   20 ar
    47   20   57 1
    48   21   22 2
    49   21   23 1
    50   22   58 1
    51   22   68 1
    52   23   59 1
    53   23   60 1
    54   24   25 2
    55   24   26 1
    56   26   31 ar
    57   26   27 ar
    58   27   28 ar
    59   27   61 1
    60   28   29 ar
    61   28   62 1
    62   29   30 ar
    63   29   63 1
    64   30   35 ar
    65   30   31 ar
    66   31   32 ar
    67   32   33 ar
    68   32   64 1
    69   33   34 ar
    70   33   65 1
    71   34   35 ar
    72   34   66 1
    73   35   67 1
@<TRIPOS>MOLECULE
CHEMBL206232
   62    65     0     0     0
SMALL
USER_CHARGES

@<TRIPOS>ATOM
      1 C1          1.5244    1.0610   -0.2751 C.3       1 <0>        -0.1120
      2 C2          0.7352   -0.2151   -0.1343 C.ar      1 <0>        -0.0704
      3 C3         -0.0113   -0.6867   -1.1988 C.ar      1 <0>        -0.1446
      4 C4         -0.7364   -1.8572   -1.0737 C.ar      1 <0>        -0.0980
      5 C5         -0.7174   -2.5595    0.1157 C.ar      1 <0>        -0.1277
      6 C6          0.0310   -2.0886    1.1863 C.ar      1 <0>         0.1635
      7 C7          0.7626   -0.9152    1.0557 C.ar      1 <0>        -0.1529
      8 N1          0.0521   -2.7974    2.3926 N.am      1 <0>        -0.6853
      9 C8         -0.0314   -4.1425    2.3854 C.2       1 <0>         0.5175
     10 O1         -0.0283   -4.7447    1.3326 O.2       1 <0>        -0.5009
     11 C9         -0.1286   -4.8984    3.6855 C.3       1 <0>        -0.0636
     12 C10        -0.2097   -6.3763    3.4024 C.ar      1 <0>        -0.2511
     13 C11         0.9105   -7.1640    3.5264 C.ar      1 <0>         0.0244
     14 C12         0.8495   -8.5280    3.2679 C.ar      1 <0>        -0.1093
     15 C13        -0.3219   -9.1145    2.8859 C.ar      1 <0>        -0.0246
     16 C14        -1.4835   -8.3418    2.7500 C.ar      1 <0>        -0.3078
     17 C15        -1.4283   -6.9517    3.0179 C.ar      1 <0>         0.4273
     18 O2         -2.4338   -6.2592    2.9095 O.3       1 <0>        -0.5917
     19 C16        -2.7036   -8.9467    2.3533 C.cat     1 <0>         0.5050
     20 N2         -2.8159   -9.9749    1.4882 N.pl3     1 <0>        -0.5802
     21 H1         -2.0812  -10.4197    1.0374 H         1 <0>         0.4605
     22 C17        -4.1583  -10.2886    1.3526 C.ar      1 <0>         0.1583
     23 C18        -4.8412  -11.2429    0.6064 C.ar      1 <0>        -0.0987
     24 C19        -6.2033  -11.3206    0.6733 C.ar      1 <0>        -0.0506
     25 C20        -6.9213  -10.4426    1.4914 C.ar      1 <0>        -0.1676
     26 C21        -6.2472   -9.4818    2.2439 C.ar      1 <0>        -0.0423
     27 C22        -4.8662   -9.4046    2.1754 C.ar      1 <0>         0.0852
     28 N3         -3.9267   -8.5854    2.7879 N.pl3     1 <0>        -0.5719
     29 C23        -8.3952  -10.5329    1.5578 C.cat     1 <0>         0.6120
     30 N4         -9.0847  -10.9600    0.5009 N.pl3     1 <0>        -0.7631
     31 N5         -9.0340  -10.1871    2.6745 N.pl3     1 <0>        -0.7632
     32 C24         2.0917   -9.3692    3.4105 C.3       1 <0>        -0.0964
     33 C25         2.4205  -10.0250    2.0679 C.3       1 <0>        -0.1483
     34 C26         3.7280  -10.7662    2.1777 C.2       1 <0>         0.4864
     35 O3          4.3402  -10.7696    3.2321 O.co2     1 <0>        -0.6674
     36 O4          4.1737  -11.3624    1.2121 O.co2     1 <0>        -0.7342
     37 C27         1.8586  -10.4374    4.4476 C.2       1 <0>         0.5297
     38 O5          0.9663  -11.2537    4.2922 O.co2     1 <0>        -0.7257
     39 O6          2.5622  -10.4854    5.4422 O.co2     1 <0>        -0.6847
     40 H2          2.5240    0.8311   -0.6440 H         1 <0>         0.0705
     41 H3          1.0210    1.7238   -0.9789 H         1 <0>         0.0647
     42 H4          1.5992    1.5510    0.6956 H         1 <0>         0.0647
     43 H5         -0.0281   -0.1393   -2.1296 H         1 <0>         0.1186
     44 H6         -1.3186   -2.2227   -1.9067 H         1 <0>         0.1212
     45 H7         -1.2843   -3.4736    0.2129 H         1 <0>         0.1340
     46 H8          1.3490   -0.5486    1.8852 H         1 <0>         0.1236
     47 H9          0.1268   -2.3206    3.2340 H         1 <0>         0.4081
     48 H10         0.7532   -4.6925    4.2923 H         1 <0>         0.0952
     49 H11        -1.0220   -4.5820    4.2238 H         1 <0>         0.0988
     50 H12         1.8470   -6.7181    3.8272 H         1 <0>         0.1165
     51 H13        -0.3540  -10.1757    2.6877 H         1 <0>         0.1287
     52 H14        -4.2933  -11.9241   -0.0278 H         1 <0>         0.1601
     53 H15        -6.7283  -12.0636    0.0913 H         1 <0>         0.1485
     54 H16        -6.7987   -8.8017    2.8762 H         1 <0>         0.1480
     55 H17        -8.6195  -11.2117   -0.3122 H         1 <0>         0.4462
     56 H18        -8.5320   -9.8762    3.4441 H         1 <0>         0.4465
     57 H19       -10.0012  -10.2464    2.7181 H         1 <0>         0.4301
     58 H20         2.9245   -8.7378    3.7201 H         1 <0>         0.0648
     59 H21         1.6278  -10.7241    1.8012 H         1 <0>         0.0507
     60 H22         2.5016   -9.2571    1.2986 H         1 <0>         0.0374
     61 H23       -10.0519  -11.0192    0.5445 H         1 <0>         0.4301
     62 H24        -4.1184   -7.8740    3.4188 H         1 <0>         0.4574
@<TRIPOS>BOND
     1    1    2 1
     2    1   40 1
     3    1   41 1
     4    1   42 1
     5    2    7 ar
     6    2    3 ar
     7    3    4 ar
     8    3   43 1
     9    4    5 ar
    10    4   44 1
    11    5    6 ar
    12    5   45 1
    13    6    7 ar
    14    6    8 1
    15    7   46 1
    16    8    9 am
    17    8   47 1
    18    9   10 2
    19    9   11 1
    20   11   12 1
    21   11   48 1
    22   11   49 1
    23   12   17 ar
    24   12   13 ar
    25   13   14 ar
    26   13   50 1
    27   14   15 ar
    28   14   32 1
    29   15   16 ar
    30   15   51 1
    31   16   17 ar
    32   16   19 1
    33   17   18 1
    34   19   28 2
    35   19   20 1
    36   20   21 1
    37   20   22 1
    38   22   27 ar
    39   22   23 ar
    40   23   24 ar
    41   23   52 1
    42   24   25 ar
    43   24   53 1
    44   25   26 ar
    45   25   29 1
    46   26   27 ar
    47   26   54 1
    48   27   28 1
    49   28   62 1
    50   29   30 2
    51   29   31 1
    52   30   55 1
    53   30   61 1
    54   31   56 1
    55   31   57 1
    56   32   33 1
    57   32   37 1
    58   32   58 1
    59   33   34 1
    60   33   59 1
    61   33   60 1
    62   34   35 2
    63   34   36 1
    64   37   38 2
    65   37   39 1
@<TRIPOS>MOLECULE
CHEMBL206232__1
   62    65     0     0     0
SMALL
USER_CHARGES

@<TRIPOS>ATOM
      1 C1         -1.2525    1.1936   -0.1650 C.3       1 <0>        -0.1118
      2 C2         -0.5808   -0.1529   -0.0825 C.ar      1 <0>        -0.0734
      3 C3          0.0295   -0.6901   -1.2012 C.ar      1 <0>        -0.1400
      4 C4          0.6473   -1.9250   -1.1295 C.ar      1 <0>        -0.0973
      5 C5          0.6566   -2.6261    0.0606 C.ar      1 <0>        -0.1255
      6 C6          0.0448   -2.0895    1.1856 C.ar      1 <0>         0.1540
      7 C7         -0.5704   -0.8464    1.1116 C.ar      1 <0>        -0.1496
      8 N1          0.0521   -2.7974    2.3926 N.am      1 <0>        -0.6791
      9 C8         -0.0314   -4.1425    2.3854 C.2       1 <0>         0.5169
     10 O1         -0.0283   -4.7447    1.3326 O.2       1 <0>        -0.5070
     11 C9         -0.1286   -4.8984    3.6855 C.3       1 <0>        -0.0885
     12 C10        -0.2097   -6.3763    3.4024 C.ar      1 <0>        -0.1059
     13 C11         0.9175   -7.1658    3.5277 C.ar      1 <0>        -0.0634
     14 C12         0.8524   -8.5243    3.2698 C.ar      1 <0>        -0.0029
     15 C13        -0.3393   -9.1027    2.8850 C.ar      1 <0>        -0.0512
     16 C14        -1.4845   -8.3163    2.7554 C.ar      1 <0>        -0.0990
     17 C15        -1.4158   -6.9429    3.0224 C.ar      1 <0>         0.1538
     18 O2         -2.5251   -6.1692    2.9039 O.3       1 <0>        -0.4771
     19 C16        -2.7640   -8.9297    2.3436 C.2       1 <0>         0.4011
     20 N2         -2.9476  -10.2587    2.0682 N.pl3     1 <0>        -0.5834
     21 H1         -2.2715  -10.9531    2.1085 H         1 <0>         0.4409
     22 C17        -4.2724  -10.4265    1.7233 C.ar      1 <0>         0.0933
     23 C18        -5.0353  -11.5266    1.3491 C.ar      1 <0>        -0.0843
     24 C19        -6.3606  -11.3756    1.0590 C.ar      1 <0>        -0.0812
     25 C20        -6.9652  -10.1145    1.1348 C.ar      1 <0>        -0.1802
     26 C21        -6.2187   -9.0019    1.5068 C.ar      1 <0>         0.0065
     27 C22        -4.8635   -9.1514    1.8048 C.ar      1 <0>         0.0520
     28 N3         -3.8950   -8.2848    2.1925 N.2       1 <0>        -0.4694
     29 C23        -8.4013   -9.9657    0.8178 C.cat     1 <0>         0.6132
     30 N4         -8.9769  -10.7819   -0.0637 N.pl3     1 <0>        -0.7663
     31 N5         -9.1199   -9.0153    1.4136 N.pl3     1 <0>        -0.7662
     32 C24         2.0886   -9.3747    3.4095 C.3       1 <0>        -0.1142
     33 C25         2.4107  -10.0310    2.0655 C.3       1 <0>        -0.1466
     34 C26         3.7130  -10.7818    2.1723 C.2       1 <0>         0.5036
     35 O3          4.3266  -10.7910    3.2258 O.co2     1 <0>        -0.6579
     36 O4          4.1529  -11.3799    1.2053 O.co2     1 <0>        -0.7413
     37 C27         1.8493  -10.4426    4.4455 C.2       1 <0>         0.5055
     38 O5          2.4190  -11.5168    4.3565 O.co2     1 <0>        -0.6397
     39 O6          1.0860  -10.2323    5.3726 O.co2     1 <0>        -0.7311
     40 H2         -0.5306    1.9750    0.0726 H         1 <0>         0.0696
     41 H3         -1.6354    1.3474   -1.1739 H         1 <0>         0.0653
     42 H4         -2.0773    1.2325    0.5465 H         1 <0>         0.0642
     43 H5          0.0233   -0.1440   -2.1330 H         1 <0>         0.1196
     44 H6          1.1227   -2.3420   -2.0050 H         1 <0>         0.1249
     45 H7          1.1390   -3.5908    0.1159 H         1 <0>         0.1417
     46 H8         -1.0435   -0.4244    1.9860 H         1 <0>         0.1229
     47 H9          0.1172   -2.3200    3.2345 H         1 <0>         0.4109
     48 H10         0.7532   -4.6925    4.2923 H         1 <0>         0.1087
     49 H11        -1.0220   -4.5820    4.2238 H         1 <0>         0.1114
     50 H12         1.8544   -6.7205    3.8282 H         1 <0>         0.1293
     51 H13        -0.3857  -10.1628    2.6840 H         1 <0>         0.1202
     52 H14        -2.6504   -5.7937    2.0216 H         1 <0>         0.3804
     53 H15        -4.5783  -12.5032    1.2874 H         1 <0>         0.1452
     54 H16        -6.9471  -12.2348    0.7686 H         1 <0>         0.1388
     55 H17        -6.6843   -8.0292    1.5653 H         1 <0>         0.1424
     56 H18        -8.4536  -11.4739   -0.4976 H         1 <0>         0.4456
     57 H19        -8.7008   -8.4210    2.0554 H         1 <0>         0.4465
     58 H20       -10.0623   -8.9177    1.2056 H         1 <0>         0.4276
     59 H21         2.9265   -8.7497    3.7187 H         1 <0>         0.0754
     60 H22         1.6126  -10.7240    1.7990 H         1 <0>         0.0409
     61 H23         2.4962   -9.2626    1.2971 H         1 <0>         0.0341
     62 H24        -9.9193  -10.6843   -0.2717 H         1 <0>         0.4275
@<TRIPOS>BOND
     1    1    2 1
     2    1   40 1
     3    1   41 1
     4    1   42 1
     5    2    7 ar
     6    2    3 ar
     7    3    4 ar
     8    3   43 1
     9    4    5 ar
    10    4   44 1
    11    5    6 ar
    12    5   45 1
    13    6    7 ar
    14    6    8 1
    15    7   46 1
    16    8    9 am
    17    8   47 1
    18    9   10 2
    19    9   11 1
    20   11   12 1
    21   11   48 1
    22   11   49 1
    23   12   17 ar
    24   12   13 ar
    25   13   14 ar
    26   13   50 1
    27   14   15 ar
    28   14   32 1
    29   15   16 ar
    30   15   51 1
    31   16   17 ar
    32   16   19 1
    33   17   18 1
    34   18   52 1
    35   19   28 2
    36   19   20 1
    37   20   21 1
    38   20   22 1
    39   22   27 ar
    40   22   23 ar
    41   23   24 ar
    42   23   53 1
    43   24   25 ar
    44   24   54 1
    45   25   26 ar
    46   25   29 1
    47   26   27 ar
    48   26   55 1
    49   27   28 1
    50   29   30 2
    51   29   31 1
    52   30   56 1
    53   30   62 1
    54   31   57 1
    55   31   58 1
    56   32   33 1
    57   32   37 1
    58   32   59 1
    59   33   34 1
    60   33   60 1
    61   33   61 1
    62   34   35 2
    63   34   36 1
    64   37   38 2
    65   37   39 1
@<TRIPOS>MOLECULE
CHEMBL206232__2
   62    65     0     0     0
SMALL
USER_CHARGES

@<TRIPOS>ATOM
      1 C1          1.5244    1.0610   -0.2751 C.3       1 <0>        -0.1115
      2 C2          0.7352   -0.2151   -0.1343 C.ar      1 <0>        -0.0710
      3 C3         -0.0113   -0.6867   -1.1988 C.ar      1 <0>        -0.1448
      4 C4         -0.7364   -1.8572   -1.0737 C.ar      1 <0>        -0.0975
      5 C5         -0.7174   -2.5595    0.1157 C.ar      1 <0>        -0.1273
      6 C6          0.0310   -2.0886    1.1863 C.ar      1 <0>         0.1639
      7 C7          0.7626   -0.9152    1.0557 C.ar      1 <0>        -0.1533
      8 N1          0.0521   -2.7974    2.3926 N.am      1 <0>        -0.6860
      9 C8         -0.0314   -4.1425    2.3854 C.2       1 <0>         0.5140
     10 O1         -0.0283   -4.7447    1.3326 O.2       1 <0>        -0.4948
     11 C9         -0.1286   -4.8984    3.6855 C.3       1 <0>        -0.0619
     12 C10        -0.2097   -6.3763    3.4024 C.ar      1 <0>        -0.2527
     13 C11         0.9105   -7.1640    3.5264 C.ar      1 <0>         0.0241
     14 C12         0.8495   -8.5280    3.2679 C.ar      1 <0>        -0.0906
     15 C13        -0.3219   -9.1145    2.8859 C.ar      1 <0>        -0.0124
     16 C14        -1.4835   -8.3418    2.7500 C.ar      1 <0>        -0.2994
     17 C15        -1.4283   -6.9517    3.0179 C.ar      1 <0>         0.4283
     18 O2         -2.4338   -6.2592    2.9095 O.3       1 <0>        -0.5919
     19 C16        -2.7036   -8.9467    2.3533 C.cat     1 <0>         0.4959
     20 N2         -2.8159   -9.9749    1.4882 N.pl3     1 <0>        -0.5795
     21 H1         -2.0812  -10.4197    1.0374 H         1 <0>         0.4635
     22 C17        -4.1583  -10.2886    1.3526 C.ar      1 <0>         0.1593
     23 C18        -4.8412  -11.2429    0.6064 C.ar      1 <0>        -0.1007
     24 C19        -6.2033  -11.3206    0.6733 C.ar      1 <0>        -0.0499
     25 C20        -6.9213  -10.4426    1.4914 C.ar      1 <0>        -0.1695
     26 C21        -6.2472   -9.4818    2.2439 C.ar      1 <0>        -0.0436
     27 C22        -4.8662   -9.4046    2.1754 C.ar      1 <0>         0.0847
     28 N3         -3.9267   -8.5854    2.7879 N.pl3     1 <0>        -0.5739
     29 C23        -8.3952  -10.5329    1.5578 C.cat     1 <0>         0.6119
     30 N4         -9.0847  -10.9600    0.5009 N.pl3     1 <0>        -0.7633
     31 N5         -9.0340  -10.1871    2.6745 N.pl3     1 <0>        -0.7640
     32 C24         2.0917   -9.3692    3.4105 C.3       1 <0>        -0.1019
     33 C25         1.8550  -10.4537    4.4635 C.3       1 <0>        -0.1466
     34 C26         3.1338  -11.2167    4.6950 C.2       1 <0>         0.4834
     35 O3          4.1411  -10.9205    4.0753 O.co2     1 <0>        -0.6361
     36 O4          3.1611  -12.1302    5.5020 O.co2     1 <0>        -0.7475
     37 C27         2.4155  -10.0152    2.0881 C.2       1 <0>         0.4978
     38 O5          1.7036   -9.8113    1.1195 O.co2     1 <0>        -0.7337
     39 O6          3.3894  -10.7416    1.9867 O.co2     1 <0>        -0.6370
     40 H2          2.5240    0.8311   -0.6440 H         1 <0>         0.0702
     41 H3          1.0210    1.7238   -0.9789 H         1 <0>         0.0645
     42 H4          1.5992    1.5510    0.6956 H         1 <0>         0.0643
     43 H5         -0.0281   -0.1393   -2.1296 H         1 <0>         0.1184
     44 H6         -1.3186   -2.2227   -1.9067 H         1 <0>         0.1213
     45 H7         -1.2843   -3.4736    0.2129 H         1 <0>         0.1342
     46 H8          1.3490   -0.5486    1.8852 H         1 <0>         0.1232
     47 H9          0.1268   -2.3206    3.2340 H         1 <0>         0.4072
     48 H10         0.7532   -4.6925    4.2923 H         1 <0>         0.0936
     49 H11        -1.0220   -4.5820    4.2238 H         1 <0>         0.0976
     50 H12         1.8470   -6.7181    3.8272 H         1 <0>         0.1137
     51 H13        -0.3540  -10.1757    2.6877 H         1 <0>         0.1088
     52 H14        -4.2933  -11.9241   -0.0278 H         1 <0>         0.1598
     53 H15        -6.7283  -12.0636    0.0913 H         1 <0>         0.1479
     54 H16        -6.7987   -8.8017    2.8762 H         1 <0>         0.1473
     55 H17        -8.6195  -11.2117   -0.3122 H         1 <0>         0.4463
     56 H18        -8.5320   -9.8762    3.4441 H         1 <0>         0.4462
     57 H19       -10.0012  -10.2464    2.7181 H         1 <0>         0.4298
     58 H20         2.9245   -8.7378    3.7201 H         1 <0>         0.0647
     59 H21         1.5343   -9.9904    5.3965 H         1 <0>         0.0337
     60 H22         1.0821  -11.1378    4.1131 H         1 <0>         0.0364
     61 H23       -10.0519  -11.0192    0.5445 H         1 <0>         0.4299
     62 H24        -4.1184   -7.8740    3.4188 H         1 <0>         0.4565
@<TRIPOS>BOND
     1    1    2 1
     2    1   40 1
     3    1   41 1
     4    1   42 1
     5    2    7 ar
     6    2    3 ar
     7    3    4 ar
     8    3   43 1
     9    4    5 ar
    10    4   44 1
    11    5    6 ar
    12    5   45 1
    13    6    7 ar
    14    6    8 1
    15    7   46 1
    16    8    9 am
    17    8   47 1
    18    9   10 2
    19    9   11 1
    20   11   12 1
    21   11   48 1
    22   11   49 1
    23   12   17 ar
    24   12   13 ar
    25   13   14 ar
    26   13   50 1
    27   14   15 ar
    28   14   32 1
    29   15   16 ar
    30   15   51 1
    31   16   17 ar
    32   16   19 1
    33   17   18 1
    34   19   28 2
    35   19   20 1
    36   20   21 1
    37   20   22 1
    38   22   27 ar
    39   22   23 ar
    40   23   24 ar
    41   23   52 1
    42   24   25 ar
    43   24   53 1
    44   25   26 ar
    45   25   29 1
    46   26   27 ar
    47   26   54 1
    48   27   28 1
    49   28   62 1
    50   29   30 2
    51   29   31 1
    52   30   55 1
    53   30   61 1
    54   31   56 1
    55   31   57 1
    56   32   33 1
    57   32   37 1
    58   32   58 1
    59   33   34 1
    60   33   59 1
    61   33   60 1
    62   34   35 2
    63   34   36 1
    64   37   38 2
    65   37   39 1
@<TRIPOS>MOLECULE
CHEMBL206232__3
   62    65     0     0     0
SMALL
USER_CHARGES

@<TRIPOS>ATOM
      1 C1         -1.2525    1.1936   -0.1650 C.3       1 <0>        -0.1113
      2 C2         -0.5808   -0.1529   -0.0825 C.ar      1 <0>        -0.0742
      3 C3          0.0295   -0.6901   -1.2012 C.ar      1 <0>        -0.1399
      4 C4          0.6473   -1.9250   -1.1295 C.ar      1 <0>        -0.0968
      5 C5          0.6566   -2.6261    0.0606 C.ar      1 <0>        -0.1250
      6 C6          0.0448   -2.0895    1.1856 C.ar      1 <0>         0.1536
      7 C7         -0.5704   -0.8464    1.1116 C.ar      1 <0>        -0.1498
      8 N1          0.0521   -2.7974    2.3926 N.am      1 <0>        -0.6792
      9 C8         -0.0314   -4.1425    2.3854 C.2       1 <0>         0.5146
     10 O1         -0.0283   -4.7447    1.3326 O.2       1 <0>        -0.5032
     11 C9         -0.1286   -4.8984    3.6855 C.3       1 <0>        -0.0872
     12 C10        -0.2097   -6.3763    3.4024 C.ar      1 <0>        -0.1113
     13 C11         0.9175   -7.1658    3.5277 C.ar      1 <0>        -0.0651
     14 C12         0.8524   -8.5243    3.2698 C.ar      1 <0>        -0.0286
     15 C13        -0.3393   -9.1027    2.8850 C.ar      1 <0>        -0.0444
     16 C14        -1.4845   -8.3163    2.7554 C.ar      1 <0>        -0.1051
     17 C15        -1.4158   -6.9429    3.0224 C.ar      1 <0>         0.1557
     18 O2         -2.5251   -6.1692    2.9039 O.3       1 <0>        -0.4785
     19 C16        -2.7640   -8.9297    2.3436 C.2       1 <0>         0.4008
     20 N2         -2.9476  -10.2587    2.0682 N.pl3     1 <0>        -0.5807
     21 H1         -2.2715  -10.9531    2.1085 H         1 <0>         0.4438
     22 C17        -4.2724  -10.4265    1.7233 C.ar      1 <0>         0.0938
     23 C18        -5.0353  -11.5266    1.3491 C.ar      1 <0>        -0.0837
     24 C19        -6.3606  -11.3756    1.0590 C.ar      1 <0>        -0.0817
     25 C20        -6.9652  -10.1145    1.1348 C.ar      1 <0>        -0.1807
     26 C21        -6.2187   -9.0019    1.5068 C.ar      1 <0>         0.0064
     27 C22        -4.8635   -9.1514    1.8048 C.ar      1 <0>         0.0511
     28 N3         -3.8950   -8.2848    2.1925 N.2       1 <0>        -0.4709
     29 C23        -8.4013   -9.9657    0.8178 C.cat     1 <0>         0.6132
     30 N4         -8.9769  -10.7819   -0.0637 N.pl3     1 <0>        -0.7663
     31 N5         -9.1199   -9.0153    1.4136 N.pl3     1 <0>        -0.7667
     32 C24         2.0886   -9.3747    3.4095 C.3       1 <0>        -0.1085
     33 C25         1.8457  -10.4589    4.4613 C.3       1 <0>        -0.1509
     34 C26         3.1193  -11.2314    4.6899 C.2       1 <0>         0.4875
     35 O3          4.1278  -10.9416    4.0691 O.co2     1 <0>        -0.6654
     36 O4          3.1411  -12.1461    5.4957 O.co2     1 <0>        -0.7299
     37 C27         2.4058  -10.0211    2.0857 C.2       1 <0>         0.5299
     38 O5          3.4736   -9.8007    1.5399 O.co2     1 <0>        -0.6756
     39 O6          1.5947  -10.7646    1.5604 O.co2     1 <0>        -0.7218
     40 H2         -0.5306    1.9750    0.0726 H         1 <0>         0.0694
     41 H3         -1.6354    1.3474   -1.1739 H         1 <0>         0.0652
     42 H4         -2.0773    1.2325    0.5465 H         1 <0>         0.0639
     43 H5          0.0233   -0.1440   -2.1330 H         1 <0>         0.1196
     44 H6          1.1227   -2.3420   -2.0050 H         1 <0>         0.1253
     45 H7          1.1390   -3.5908    0.1159 H         1 <0>         0.1423
     46 H8         -1.0435   -0.4244    1.9860 H         1 <0>         0.1226
     47 H9          0.1172   -2.3200    3.2345 H         1 <0>         0.4102
     48 H10         0.7532   -4.6925    4.2923 H         1 <0>         0.1080
     49 H11        -1.0220   -4.5820    4.2238 H         1 <0>         0.1105
     50 H12         1.8544   -6.7205    3.8282 H         1 <0>         0.1310
     51 H13        -0.3857  -10.1628    2.6840 H         1 <0>         0.1412
     52 H14        -2.6504   -5.7937    2.0216 H         1 <0>         0.3823
     53 H15        -4.5783  -12.5032    1.2874 H         1 <0>         0.1456
     54 H16        -6.9471  -12.2348    0.7686 H         1 <0>         0.1385
     55 H17        -6.6843   -8.0292    1.5653 H         1 <0>         0.1419
     56 H18        -8.4536  -11.4739   -0.4976 H         1 <0>         0.4458
     57 H19        -8.7008   -8.4210    2.0554 H         1 <0>         0.4463
     58 H20       -10.0623   -8.9177    1.2056 H         1 <0>         0.4274
     59 H21         2.9265   -8.7497    3.7187 H         1 <0>         0.0741
     60 H22         1.5297   -9.9945    5.3955 H         1 <0>         0.0395
     61 H23         1.0673  -11.1369    4.1111 H         1 <0>         0.0540
     62 H24        -9.9193  -10.6843   -0.2717 H         1 <0>         0.4274
@<TRIPOS>BOND
     1    1    2 1
     2    1   40 1
     3    1   41 1
     4    1   42 1
     5    2    7 ar
     6    2    3 ar
     7    3    4 ar
     8    3   43 1
     9    4    5 ar
    10    4   44 1
    11    5    6 ar
    12    5   45 1
    13    6    7 ar
    14    6    8 1
    15    7   46 1
    16    8    9 am
    17    8   47 1
    18    9   10 2
    19    9   11 1
    20   11   12 1
    21   11   48 1
    22   11   49 1
    23   12   17 ar
    24   12   13 ar
    25   13   14 ar
    26   13   50 1
    27   14   15 ar
    28   14   32 1
    29   15   16 ar
    30   15   51 1
    31   16   17 ar
    32   16   19 1
    33   17   18 1
    34   18   52 1
    35   19   28 2
    36   19   20 1
    37   20   21 1
    38   20   22 1
    39   22   27 ar
    40   22   23 ar
    41   23   24 ar
    42   23   53 1
    43   24   25 ar
    44   24   54 1
    45   25   26 ar
    46   25   29 1
    47   26   27 ar
    48   26   55 1
    49   27   28 1
    50   29   30 2
    51   29   31 1
    52   30   56 1
    53   30   62 1
    54   31   57 1
    55   31   58 1
    56   32   33 1
    57   32   37 1
    58   32   59 1
    59   33   34 1
    60   33   60 1
    61   33   61 1
    62   34   35 2
    63   34   36 1
    64   37   38 2
    65   37   39 1
@<TRIPOS>MOLECULE
CHEMBL204723
   63    67     0     0     0
SMALL
USER_CHARGES

@<TRIPOS>ATOM
      1 C1         -0.0153    1.3805    0.0311 C.ar      1 <0>        -0.1384
      2 C2          0.1397    0.2186    0.7646 C.ar      1 <0>        -0.0994
      3 C3          1.3441   -0.4572    0.7442 C.ar      1 <0>        -0.1201
      4 C4          2.3999    0.0314   -0.0139 C.ar      1 <0>         0.1656
      5 C5          2.2411    1.1985   -0.7495 C.ar      1 <0>        -0.1498
      6 C6          1.0342    1.8696   -0.7249 C.ar      1 <0>        -0.1009
      7 N1          3.6217   -0.6508   -0.0363 N.am      1 <0>        -0.6866
      8 C7          3.6448   -1.9950    0.0580 C.2       1 <0>         0.7044
      9 O1          2.6030   -2.6219    0.0652 O.2       1 <0>        -0.5701
     10 N2          4.8227   -2.6444    0.1444 N.am      1 <0>        -0.7367
     11 C8          4.8478   -4.1055    0.2469 C.3       1 <0>         0.1794
     12 C9          6.2761   -4.5788    0.3299 C.ar      1 <0>        -0.1063
     13 C10         6.9742   -4.8734   -0.8277 C.ar      1 <0>        -0.0968
     14 C11         8.2851   -5.3087   -0.7591 C.ar      1 <0>        -0.1207
     15 C12         8.9044   -5.4515    0.4663 C.ar      1 <0>        -0.0924
     16 C13         8.2063   -5.1558    1.6354 C.ar      1 <0>        -0.0358
     17 C14         6.8871   -4.7121    1.5599 C.ar      1 <0>        -0.0803
     18 C15         8.8663   -5.3078    2.9552 C.ar      1 <0>        -0.0670
     19 C16         8.8166   -4.2706    3.8846 C.ar      1 <0>        -0.0554
     20 C17         9.4302   -4.4090    5.1145 C.ar      1 <0>        -0.0143
     21 C18        10.0978   -5.5743    5.4351 C.ar      1 <0>        -0.0547
     22 C19        10.1577   -6.6232    4.5168 C.ar      1 <0>        -0.1040
     23 C20         9.5338   -6.4926    3.2714 C.ar      1 <0>         0.1206
     24 O2          9.5816   -7.5099    2.3738 O.3       1 <0>        -0.4924
     25 C21        10.8731   -7.8700    4.8608 C.2       1 <0>         0.2422
     26 C22        12.0468   -7.9407    5.5383 C.2       1 <0>        -0.2126
     27 C23        12.3958   -9.3086    5.6626 C.ar      1 <0>         0.1241
     28 C24        11.3779  -10.0446    5.0294 C.ar      1 <0>         0.0204
     29 N3         10.4512   -9.1411    4.5500 N.pl3     1 <0>        -0.5341
     30 H1          9.6381   -9.3656    4.0710 H         1 <0>         0.4444
     31 C25        11.4618  -11.4343    4.9994 C.ar      1 <0>         0.0580
     32 C26        12.5496  -12.0405    5.5970 C.ar      1 <0>        -0.2131
     33 C27        13.5257  -11.2540    6.2088 C.ar      1 <0>         0.4724
     34 N4         13.4292   -9.9376    6.2266 N.ar      1 <0>        -0.4919
     35 N5         14.6200  -11.8675    6.8104 N.pl3     1 <0>        -0.8284
     36 C28         9.3709   -3.2810    6.1122 C.3       1 <0>        -0.1648
     37 C29         8.1515   -3.4438    6.9826 C.2       1 <0>         0.4959
     38 O3          7.4002   -4.3883    6.8089 O.co2     1 <0>        -0.6878
     39 O4          7.9162   -2.6312    7.8605 O.co2     1 <0>        -0.6895
     40 H2         -0.9595    1.9047    0.0451 H         1 <0>         0.1225
     41 H3         -0.6817   -0.1607    1.3543 H         1 <0>         0.1254
     42 H4          1.4646   -1.3645    1.3176 H         1 <0>         0.1361
     43 H5          3.0605    1.5812   -1.3398 H         1 <0>         0.1236
     44 H6          0.9101    2.7774   -1.2967 H         1 <0>         0.1252
     45 H7          4.4519   -0.1561   -0.1198 H         1 <0>         0.4070
     46 H8          5.6538   -2.1442    0.1387 H         1 <0>         0.3993
     47 H9          4.3095   -4.4162    1.1424 H         1 <0>         0.0801
     48 H10         4.3716   -4.5397   -0.6322 H         1 <0>         0.0785
     49 H11         6.4935   -4.7634   -1.7885 H         1 <0>         0.1249
     50 H12         8.8252   -5.5376   -1.6659 H         1 <0>         0.1255
     51 H13         9.9279   -5.7921    0.5188 H         1 <0>         0.1169
     52 H14         6.3428   -4.4774    2.4627 H         1 <0>         0.1313
     53 H15         8.2969   -3.3554    3.6424 H         1 <0>         0.1321
     54 H16        10.5751   -5.6740    6.3988 H         1 <0>         0.1329
     55 H17        10.3424   -7.4734    1.7781 H         1 <0>         0.3846
     56 H18        12.6145   -7.1030    5.9155 H         1 <0>         0.1747
     57 H19        10.6944  -12.0242    4.5204 H         1 <0>         0.1698
     58 H20        12.6436  -13.1164    5.5910 H         1 <0>         0.1803
     59 H21        14.6993  -12.8343    6.8020 H         1 <0>         0.4374
     60 H22        15.3037  -11.3285    7.2382 H         1 <0>         0.4186
     61 H23        10.2660   -3.2985    6.7339 H         1 <0>         0.0762
     62 H24         9.3149   -2.3300    5.5825 H         1 <0>         0.0777
     63 H25        14.1234   -9.4164    6.6595 H         1 <0>         0.4367
@<TRIPOS>BOND
     1    1    6 ar
     2    1    2 ar
     3    1   40 1
     4    2    3 ar
     5    2   41 1
     6    3    4 ar
     7    3   42 1
     8    4    5 ar
     9    4    7 1
    10    5    6 ar
    11    5   43 1
    12    6   44 1
    13    7    8 am
    14    7   45 1
    15    8    9 2
    16    8   10 am
    17   10   11 1
    18   10   46 1
    19   11   12 1
    20   11   47 1
    21   11   48 1
    22   12   17 ar
    23   12   13 ar
    24   13   14 ar
    25   13   49 1
    26   14   15 ar
    27   14   50 1
    28   15   16 ar
    29   15   51 1
    30   16   17 ar
    31   16   18 1
    32   17   52 1
    33   18   23 ar
    34   18   19 ar
    35   19   20 ar
    36   19   53 1
    37   20   21 ar
    38   20   36 1
    39   21   22 ar
    40   21   54 1
    41   22   23 ar
    42   22   25 1
    43   23   24 1
    44   24   55 1
    45   25   29 1
    46   25   26 2
    47   26   27 1
    48   26   56 1
    49   27   34 ar
    50   27   28 ar
    51   28   29 1
    52   28   31 ar
    53   29   30 1
    54   31   32 ar
    55   31   57 1
    56   32   33 ar
    57   32   58 1
    58   33   34 ar
    59   33   35 1
    60   34   63 1
    61   35   59 1
    62   35   60 1
    63   36   37 1
    64   36   61 1
    65   36   62 1
    66   37   38 2
    67   37   39 1
@<TRIPOS>MOLECULE
CHEMBL204723__1
   62    66     0     0     0
SMALL
USER_CHARGES

@<TRIPOS>ATOM
      1 C1         -0.0153    1.3805    0.0311 C.ar      1 <0>        -0.1409
      2 C2          0.1397    0.2186    0.7646 C.ar      1 <0>        -0.0994
      3 C3          1.3441   -0.4572    0.7442 C.ar      1 <0>        -0.1200
      4 C4          2.3999    0.0314   -0.0139 C.ar      1 <0>         0.1691
      5 C5          2.2411    1.1985   -0.7495 C.ar      1 <0>        -0.1512
      6 C6          1.0342    1.8696   -0.7249 C.ar      1 <0>        -0.1018
      7 N1          3.6217   -0.6508   -0.0363 N.am      1 <0>        -0.6879
      8 C7          3.6448   -1.9950    0.0580 C.2       1 <0>         0.7040
      9 O1          2.6030   -2.6219    0.0652 O.2       1 <0>        -0.5717
     10 N2          4.8227   -2.6444    0.1444 N.am      1 <0>        -0.7345
     11 C8          4.8478   -4.1055    0.2469 C.3       1 <0>         0.1809
     12 C9          6.2761   -4.5788    0.3299 C.ar      1 <0>        -0.1111
     13 C10         6.9742   -4.8734   -0.8277 C.ar      1 <0>        -0.1030
     14 C11         8.2851   -5.3087   -0.7591 C.ar      1 <0>        -0.1217
     15 C12         8.9044   -5.4515    0.4663 C.ar      1 <0>        -0.0917
     16 C13         8.2063   -5.1558    1.6354 C.ar      1 <0>        -0.0226
     17 C14         6.8871   -4.7121    1.5599 C.ar      1 <0>        -0.0821
     18 C15         8.8663   -5.3078    2.9552 C.ar      1 <0>        -0.0776
     19 C16         8.8166   -4.2706    3.8846 C.ar      1 <0>        -0.0725
     20 C17         9.4302   -4.4090    5.1145 C.ar      1 <0>        -0.0206
     21 C18        10.0978   -5.5743    5.4351 C.ar      1 <0>        -0.0795
     22 C19        10.1577   -6.6232    4.5168 C.ar      1 <0>        -0.0664
     23 C20         9.5338   -6.4926    3.2714 C.ar      1 <0>         0.1279
     24 O2          9.5816   -7.5099    2.3738 O.3       1 <0>        -0.4792
     25 C21        10.8731   -7.8700    4.8608 C.2       1 <0>         0.1596
     26 C22        10.4599   -9.1243    4.5485 C.2       1 <0>        -0.1717
     27 C23        11.4192  -10.0369    5.0535 C.ar      1 <0>         0.1462
     28 C24        12.4183   -9.2687    5.6783 C.ar      1 <0>        -0.0063
     29 N3         12.0650   -7.9414    5.5425 N.pl3     1 <0>        -0.5792
     30 H1         12.5724   -7.1844    5.8749 H         1 <0>         0.4167
     31 C25        13.5015   -9.9135    6.2699 C.ar      1 <0>        -0.0397
     32 C26        13.5532  -11.2929    6.2198 C.ar      1 <0>        -0.2162
     33 C27        12.5303  -11.9972    5.5849 C.ar      1 <0>         0.3939
     34 N4         11.5108  -11.3684    5.0301 N.ar      1 <0>        -0.5204
     35 N5         12.5853  -13.3867    5.5356 N.pl3     1 <0>        -0.8591
     36 C28         9.3709   -3.2810    6.1122 C.3       1 <0>        -0.1599
     37 C29         8.1515   -3.4438    6.9826 C.2       1 <0>         0.4957
     38 O3          7.4002   -4.3883    6.8089 O.co2     1 <0>        -0.6832
     39 O4          7.9162   -2.6312    7.8605 O.co2     1 <0>        -0.6992
     40 H2         -0.9595    1.9047    0.0451 H         1 <0>         0.1211
     41 H3         -0.6817   -0.1607    1.3543 H         1 <0>         0.1248
     42 H4          1.4646   -1.3645    1.3176 H         1 <0>         0.1372
     43 H5          3.0605    1.5812   -1.3398 H         1 <0>         0.1232
     44 H6          0.9101    2.7774   -1.2967 H         1 <0>         0.1239
     45 H7          4.4519   -0.1561   -0.1198 H         1 <0>         0.4070
     46 H8          5.6538   -2.1442    0.1387 H         1 <0>         0.3996
     47 H9          4.3095   -4.4162    1.1424 H         1 <0>         0.0799
     48 H10         4.3716   -4.5397   -0.6322 H         1 <0>         0.0771
     49 H11         6.4935   -4.7634   -1.7885 H         1 <0>         0.1213
     50 H12         8.8252   -5.5376   -1.6659 H         1 <0>         0.1233
     51 H13         9.9279   -5.7921    0.5188 H         1 <0>         0.1188
     52 H14         6.3428   -4.4774    2.4627 H         1 <0>         0.1302
     53 H15         8.2969   -3.3554    3.6424 H         1 <0>         0.1244
     54 H16        10.5751   -5.6740    6.3988 H         1 <0>         0.1209
     55 H17        10.3424   -7.4734    1.7781 H         1 <0>         0.3786
     56 H18         9.5593   -9.3815    4.0107 H         1 <0>         0.1550
     57 H19        14.2829   -9.3484    6.7561 H         1 <0>         0.1300
     58 H20        14.3803  -11.8226    6.6690 H         1 <0>         0.1319
     59 H21        13.3305  -13.8572    5.9407 H         1 <0>         0.4039
     60 H22        11.8784  -13.8848    5.0962 H         1 <0>         0.4011
     61 H23        10.2660   -3.2985    6.7339 H         1 <0>         0.0709
     62 H24         9.3149   -2.3300    5.5825 H         1 <0>         0.0723
@<TRIPOS>BOND
     1    1    6 ar
     2    1    2 ar
     3    1   40 1
     4    2    3 ar
     5    2   41 1
     6    3    4 ar
     7    3   42 1
     8    4    5 ar
     9    4    7 1
    10    5    6 ar
    11    5   43 1
    12    6   44 1
    13    7    8 am
    14    7   45 1
    15    8    9 2
    16    8   10 am
    17   10   11 1
    18   10   46 1
    19   11   12 1
    20   11   47 1
    21   11   48 1
    22   12   17 ar
    23   12   13 ar
    24   13   14 ar
    25   13   49 1
    26   14   15 ar
    27   14   50 1
    28   15   16 ar
    29   15   51 1
    30   16   17 ar
    31   16   18 1
    32   17   52 1
    33   18   23 ar
    34   18   19 ar
    35   19   20 ar
    36   19   53 1
    37   20   21 ar
    38   20   36 1
    39   21   22 ar
    40   21   54 1
    41   22   23 ar
    42   22   25 1
    43   23   24 1
    44   24   55 1
    45   25   29 1
    46   25   26 2
    47   26   27 1
    48   26   56 1
    49   27   34 ar
    50   27   28 ar
    51   28   29 1
    52   28   31 ar
    53   29   30 1
    54   31   32 ar
    55   31   57 1
    56   32   33 ar
    57   32   58 1
    58   33   34 ar
    59   33   35 1
    60   35   59 1
    61   35   60 1
    62   36   37 1
    63   36   61 1
    64   36   62 1
    65   37   38 2
    66   37   39 1
@<TRIPOS>MOLECULE
CHEMBL378366
   62    66     0     0     0
SMALL
USER_CHARGES

@<TRIPOS>ATOM
      1 C1         -0.0253    1.4026    0.0083 C.ar      1 <0>        -0.1207
      2 C2          1.1653    2.1070    0.0008 C.ar      1 <0>        -0.0966
      3 C3          2.3732    1.4335   -0.0136 C.ar      1 <0>        -0.1072
      4 C4          2.3968    0.0534   -0.0206 C.ar      1 <0>        -0.0803
      5 C5          1.2006   -0.6613   -0.0127 C.ar      1 <0>        -0.0353
      6 C6         -0.0137    0.0227    0.0018 C.ar      1 <0>        -0.0918
      7 C7          1.2196   -2.1445   -0.0207 C.ar      1 <0>        -0.0675
      8 C8          1.9989   -2.8281   -0.9520 C.ar      1 <0>        -0.0552
      9 C9          2.0187   -4.2094   -0.9622 C.ar      1 <0>        -0.0137
     10 C10         1.2679   -4.9256   -0.0513 C.ar      1 <0>        -0.0546
     11 C11         0.4817   -4.2578    0.8884 C.ar      1 <0>        -0.1042
     12 C12         0.4611   -2.8591    0.9085 C.ar      1 <0>         0.1200
     13 O1         -0.2961   -2.2005    1.8228 O.3       1 <0>        -0.4931
     14 C13        -0.3220   -5.0255    1.8627 C.2       1 <0>         0.2424
     15 C14        -1.0071   -6.1651    1.5911 C.2       1 <0>        -0.2126
     16 C15        -1.6429   -6.5857    2.7857 C.ar      1 <0>         0.1245
     17 C16        -1.3047   -5.6459    3.7763 C.ar      1 <0>         0.0202
     18 N1         -0.4886   -4.7008    3.1883 N.pl3     1 <0>        -0.5344
     19 H1         -0.0990   -3.9332    3.6356 H         1 <0>         0.4440
     20 C17        -1.7976   -5.8122    5.0680 C.ar      1 <0>         0.0578
     21 C18        -2.6056   -6.9018    5.3283 C.ar      1 <0>        -0.2130
     22 C19        -2.9040   -7.7980    4.3021 C.ar      1 <0>         0.4725
     23 N2         -2.4279   -7.6234    3.0833 N.ar      1 <0>        -0.4919
     24 N3         -3.7179   -8.8950    4.5675 N.pl3     1 <0>        -0.8283
     25 C20         2.8645   -4.9389   -1.9739 C.3       1 <0>        -0.1655
     26 C21         4.2397   -5.1730   -1.4037 C.2       1 <0>         0.4963
     27 O2          4.5080   -4.7836   -0.2799 O.co2     1 <0>        -0.6885
     28 O3          5.0839   -5.7519   -2.0661 O.co2     1 <0>        -0.6890
     29 C22         3.6660    2.2078   -0.0222 C.3       1 <0>         0.1785
     30 N4          4.0979    2.4524    1.3562 N.am      1 <0>        -0.7341
     31 C23         5.2370    3.1321    1.5949 C.2       1 <0>         0.7051
     32 O4          5.9061    3.5424    0.6663 O.2       1 <0>        -0.5703
     33 N5          5.6343    3.3571    2.8630 N.am      1 <0>        -0.6820
     34 C24         6.8648    3.9763    3.1114 C.ar      1 <0>         0.1138
     35 C25         7.3409    4.9696    2.2590 C.ar      1 <0>        -0.0775
     36 C26         8.5636    5.5531    2.5468 C.ar      1 <0>        -0.1519
     37 C27         9.2661    5.1341    3.6616 C.ar      1 <0>         0.0787
     38 N6          8.7878    4.1906    4.4487 N.ar      1 <0>        -0.4660
     39 C28         7.6260    3.6134    4.2144 C.ar      1 <0>         0.0751
     40 H2         -0.9657    1.9336    0.0238 H         1 <0>         0.1256
     41 H3          1.1516    3.1869    0.0060 H         1 <0>         0.1250
     42 H4          3.3406   -0.4715   -0.0326 H         1 <0>         0.1314
     43 H5         -0.9438   -0.5262    0.0080 H         1 <0>         0.1171
     44 H6          2.5891   -2.2762   -1.6685 H         1 <0>         0.1332
     45 H7          1.2888   -6.0053   -0.0664 H         1 <0>         0.1329
     46 H8         -1.1977   -2.0151    1.5266 H         1 <0>         0.3846
     47 H9         -1.0588   -6.6629    0.6342 H         1 <0>         0.1748
     48 H10        -1.5535   -5.1060    5.8479 H         1 <0>         0.1696
     49 H11        -3.0033   -7.0590    6.3201 H         1 <0>         0.1803
     50 H12        -4.0723   -9.0312    5.4601 H         1 <0>         0.4374
     51 H13        -3.9307   -9.5234    3.8600 H         1 <0>         0.4187
     52 H14         2.4017   -5.8967   -2.2114 H         1 <0>         0.0764
     53 H15         2.9445   -4.3393   -2.8807 H         1 <0>         0.0785
     54 H16         4.4302    1.6334   -0.5459 H         1 <0>         0.0815
     55 H17         3.5156    3.1604   -0.5302 H         1 <0>         0.0799
     56 H18         3.5641    2.1251    2.0970 H         1 <0>         0.3995
     57 H19         5.0676    3.0899    3.6035 H         1 <0>         0.4093
     58 H20         6.7708    5.2770    1.3948 H         1 <0>         0.1509
     59 H21         8.9638    6.3261    1.9076 H         1 <0>         0.1389
     60 H22        10.2200    5.5857    3.8907 H         1 <0>         0.1580
     61 H23         7.2649    2.8473    4.8845 H         1 <0>         0.1561
     62 H24        -2.6525   -8.2632    2.3897 H         1 <0>         0.4368
@<TRIPOS>BOND
     1    1    6 ar
     2    1    2 ar
     3    1   40 1
     4    2    3 ar
     5    2   41 1
     6    3    4 ar
     7    3   29 1
     8    4    5 ar
     9    4   42 1
    10    5    6 ar
    11    5    7 1
    12    6   43 1
    13    7   12 ar
    14    7    8 ar
    15    8    9 ar
    16    8   44 1
    17    9   10 ar
    18    9   25 1
    19   10   11 ar
    20   10   45 1
    21   11   12 ar
    22   11   14 1
    23   12   13 1
    24   13   46 1
    25   14   18 1
    26   14   15 2
    27   15   16 1
    28   15   47 1
    29   16   23 ar
    30   16   17 ar
    31   17   18 1
    32   17   20 ar
    33   18   19 1
    34   20   21 ar
    35   20   48 1
    36   21   22 ar
    37   21   49 1
    38   22   23 ar
    39   22   24 1
    40   23   62 1
    41   24   50 1
    42   24   51 1
    43   25   26 1
    44   25   52 1
    45   25   53 1
    46   26   27 2
    47   26   28 1
    48   29   30 1
    49   29   54 1
    50   29   55 1
    51   30   31 am
    52   30   56 1
    53   31   32 2
    54   31   33 am
    55   33   34 1
    56   33   57 1
    57   34   39 ar
    58   34   35 ar
    59   35   36 ar
    60   35   58 1
    61   36   37 ar
    62   36   59 1
    63   37   38 ar
    64   37   60 1
    65   38   39 ar
    66   39   61 1
@<TRIPOS>MOLECULE
CHEMBL378366__1
   61    65     0     0     0
SMALL
USER_CHARGES

@<TRIPOS>ATOM
      1 C1         -0.0253    1.4026    0.0083 C.ar      1 <0>        -0.1217
      2 C2          1.1653    2.1070    0.0008 C.ar      1 <0>        -0.1027
      3 C3          2.3732    1.4335   -0.0136 C.ar      1 <0>        -0.1123
      4 C4          2.3968    0.0534   -0.0206 C.ar      1 <0>        -0.0820
      5 C5          1.2006   -0.6613   -0.0127 C.ar      1 <0>        -0.0220
      6 C6         -0.0137    0.0227    0.0018 C.ar      1 <0>        -0.0911
      7 C7          1.2196   -2.1445   -0.0207 C.ar      1 <0>        -0.0781
      8 C8          1.9989   -2.8281   -0.9520 C.ar      1 <0>        -0.0723
      9 C9          2.0187   -4.2094   -0.9622 C.ar      1 <0>        -0.0200
     10 C10         1.2679   -4.9256   -0.0513 C.ar      1 <0>        -0.0794
     11 C11         0.4817   -4.2578    0.8884 C.ar      1 <0>        -0.0668
     12 C12         0.4611   -2.8591    0.9085 C.ar      1 <0>         0.1273
     13 O1         -0.2961   -2.2005    1.8228 O.3       1 <0>        -0.4798
     14 C13        -0.3220   -5.0255    1.8627 C.2       1 <0>         0.1601
     15 C14        -0.4915   -4.7015    3.1696 C.2       1 <0>        -0.1723
     16 C15        -1.3256   -5.6850    3.7571 C.ar      1 <0>         0.1462
     17 C16        -1.6426   -6.6054    2.7415 C.ar      1 <0>        -0.0064
     18 N1         -1.0205   -6.1771    1.5863 N.pl3     1 <0>        -0.5791
     19 H1         -1.0665   -6.6169    0.7230 H         1 <0>         0.4169
     20 C17        -2.4610   -7.6918    3.0397 C.ar      1 <0>        -0.0395
     21 C18        -2.9333   -7.8246    4.3309 C.ar      1 <0>        -0.2163
     22 C19        -2.5823   -6.8774    5.2928 C.ar      1 <0>         0.3940
     23 N2         -1.8047   -5.8542    4.9914 N.ar      1 <0>        -0.5208
     24 N3         -3.0600   -7.0136    6.5925 N.pl3     1 <0>        -0.8591
     25 C20         2.8645   -4.9389   -1.9739 C.3       1 <0>        -0.1605
     26 C21         4.2397   -5.1730   -1.4037 C.2       1 <0>         0.4960
     27 O2          4.5080   -4.7836   -0.2799 O.co2     1 <0>        -0.6839
     28 O3          5.0839   -5.7519   -2.0661 O.co2     1 <0>        -0.6988
     29 C22         3.6660    2.2078   -0.0222 C.3       1 <0>         0.1810
     30 N4          4.0979    2.4524    1.3562 N.am      1 <0>        -0.7322
     31 C23         5.2370    3.1321    1.5949 C.2       1 <0>         0.7055
     32 O4          5.9061    3.5424    0.6663 O.2       1 <0>        -0.5741
     33 N5          5.6343    3.3571    2.8630 N.am      1 <0>        -0.6828
     34 C24         6.8648    3.9763    3.1114 C.ar      1 <0>         0.1179
     35 C25         7.3409    4.9696    2.2590 C.ar      1 <0>        -0.0784
     36 C26         8.5636    5.5531    2.5468 C.ar      1 <0>        -0.1531
     37 C27         9.2661    5.1341    3.6616 C.ar      1 <0>         0.0755
     38 N6          8.7878    4.1906    4.4487 N.ar      1 <0>        -0.4663
     39 C28         7.6260    3.6134    4.2144 C.ar      1 <0>         0.0747
     40 H2         -0.9657    1.9336    0.0238 H         1 <0>         0.1235
     41 H3          1.1516    3.1869    0.0060 H         1 <0>         0.1213
     42 H4          3.3406   -0.4715   -0.0326 H         1 <0>         0.1303
     43 H5         -0.9438   -0.5262    0.0080 H         1 <0>         0.1190
     44 H6          2.5891   -2.2762   -1.6685 H         1 <0>         0.1255
     45 H7          1.2888   -6.0053   -0.0664 H         1 <0>         0.1210
     46 H8         -1.1977   -2.0151    1.5266 H         1 <0>         0.3786
     47 H9         -0.0659   -3.8459    3.6728 H         1 <0>         0.1546
     48 H10        -2.7206   -8.4134    2.2792 H         1 <0>         0.1301
     49 H11        -3.5704   -8.6561    4.5939 H         1 <0>         0.1319
     50 H12        -3.6319   -7.7624    6.8232 H         1 <0>         0.4040
     51 H13        -2.8211   -6.3597    7.2680 H         1 <0>         0.4010
     52 H14         2.4017   -5.8967   -2.2114 H         1 <0>         0.0711
     53 H15         2.9445   -4.3393   -2.8807 H         1 <0>         0.0731
     54 H16         4.4302    1.6334   -0.5459 H         1 <0>         0.0801
     55 H17         3.5156    3.1604   -0.5302 H         1 <0>         0.0775
     56 H18         3.5641    2.1251    2.0970 H         1 <0>         0.4015
     57 H19         5.0676    3.0899    3.6035 H         1 <0>         0.4106
     58 H20         6.7708    5.2770    1.3948 H         1 <0>         0.1510
     59 H21         8.9638    6.3261    1.9076 H         1 <0>         0.1373
     60 H22        10.2200    5.5857    3.8907 H         1 <0>         0.1563
     61 H23         7.2649    2.8473    4.8845 H         1 <0>         0.1573
@<TRIPOS>BOND
     1    1    6 ar
     2    1    2 ar
     3    1   40 1
     4    2    3 ar
     5    2   41 1
     6    3    4 ar
     7    3   29 1
     8    4    5 ar
     9    4   42 1
    10    5    6 ar
    11    5    7 1
    12    6   43 1
    13    7   12 ar
    14    7    8 ar
    15    8    9 ar
    16    8   44 1
    17    9   10 ar
    18    9   25 1
    19   10   11 ar
    20   10   45 1
    21   11   12 ar
    22   11   14 1
    23   12   13 1
    24   13   46 1
    25   14   18 1
    26   14   15 2
    27   15   16 1
    28   15   47 1
    29   16   23 ar
    30   16   17 ar
    31   17   18 1
    32   17   20 ar
    33   18   19 1
    34   20   21 ar
    35   20   48 1
    36   21   22 ar
    37   21   49 1
    38   22   23 ar
    39   22   24 1
    40   24   50 1
    41   24   51 1
    42   25   26 1
    43   25   52 1
    44   25   53 1
    45   26   27 2
    46   26   28 1
    47   29   30 1
    48   29   54 1
    49   29   55 1
    50   30   31 am
    51   30   56 1
    52   31   32 2
    53   31   33 am
    54   33   34 1
    55   33   57 1
    56   34   39 ar
    57   34   35 ar
    58   35   36 ar
    59   35   58 1
    60   36   37 ar
    61   36   59 1
    62   37   38 ar
    63   37   60 1
    64   38   39 ar
    65   39   61 1
@<TRIPOS>MOLECULE
CHEMBL196182
   64    68     0     0     0
SMALL
USER_CHARGES

@<TRIPOS>ATOM
      1 C1          3.1475    3.7566    3.0758 C.ar      1 <0>        -0.1092
      2 C2          3.1539    2.3639    3.1014 C.ar      1 <0>        -0.0982
      3 C3          3.7268    1.6475    2.0939 C.ar      1 <0>        -0.1156
      4 C4          4.3184    2.3180    1.0148 C.ar      1 <0>        -0.0164
      5 C5          4.3126    3.7337    0.9865 C.ar      1 <0>        -0.0557
      6 C6          3.7129    4.4405    2.0434 C.ar      1 <0>        -0.1018
      7 C7          4.9052    4.4074   -0.0954 C.ar      1 <0>        -0.0707
      8 C8          5.4807    3.7009   -1.1089 C.ar      1 <0>        -0.1310
      9 C9          5.4958    2.3119   -1.0990 C.ar      1 <0>        -0.0811
     10 C10         4.9232    1.6059   -0.0512 C.ar      1 <0>        -0.1255
     11 C11         4.9435    0.1315   -0.0463 C.2       1 <0>         0.5692
     12 O1          3.9042   -0.4905    0.0620 O.2       1 <0>        -0.5036
     13 N1          6.1139   -0.5267   -0.1620 N.am      1 <0>        -0.6082
     14 C12         7.3754    0.2180   -0.1705 C.3       1 <0>         0.1032
     15 C13         7.8919    0.3626    1.2624 C.3       1 <0>        -0.1652
     16 C14         9.2095    1.1404    1.2536 C.3       1 <0>         0.0862
     17 N2          9.7041    1.2787    2.6256 N.pl3     1 <0>        -0.3735
     18 C15         9.4086    2.2869    3.4595 C.2       1 <0>        -0.0034
     19 C16        10.0467    2.0646    4.6244 C.2       1 <0>         0.0394
     20 N3         10.7398    0.8932    4.4791 N.pl3     1 <0>        -0.5103
     21 H1         11.2982    0.4680    5.1486 H         1 <0>         0.4671
     22 C17        10.4971    0.4377    3.2312 C.cat     1 <0>         0.2850
     23 C18         6.1245   -1.9870   -0.2793 C.3       1 <0>         0.1459
     24 C19         6.1749   -2.3737   -1.7350 C.ar      1 <0>        -0.0877
     25 C20         4.9895   -2.6514   -2.4131 C.ar      1 <0>        -0.0669
     26 C21         4.9998   -3.0035   -3.7281 C.ar      1 <0>        -0.1063
     27 C22         6.2214   -3.0892   -4.4166 C.ar      1 <0>        -0.0106
     28 C23         6.2647   -3.4500   -5.7758 C.ar      1 <0>        -0.0760
     29 C24         7.4568   -3.5263   -6.4204 C.ar      1 <0>        -0.0944
     30 C25         8.6595   -3.2481   -5.7473 C.ar      1 <0>        -0.1516
     31 C26         8.6503   -2.8901   -4.4103 C.ar      1 <0>        -0.0218
     32 C27         7.4276   -2.8063   -3.7270 C.ar      1 <0>        -0.0654
     33 C28         7.3768   -2.4411   -2.3697 C.ar      1 <0>        -0.0876
     34 C29         9.9448   -3.3394   -6.4736 C.cat     1 <0>         0.6008
     35 N4         10.0802   -4.1985   -7.4822 N.pl3     1 <0>        -0.7541
     36 N5         10.9667   -2.5625   -6.1189 N.pl3     1 <0>        -0.7629
     37 H2          2.6833    4.3017    3.8844 H         1 <0>         0.1314
     38 H3          2.6987    1.8446    3.9318 H         1 <0>         0.1291
     39 H4          3.7252    0.5680    2.1269 H         1 <0>         0.1292
     40 H5          3.7005    5.5204    2.0362 H         1 <0>         0.1349
     41 H6          4.9042    5.4871   -0.1239 H         1 <0>         0.1361
     42 H7          5.9327    4.2303   -1.9346 H         1 <0>         0.1328
     43 H8          5.9582    1.7764   -1.9149 H         1 <0>         0.1270
     44 H9          8.1107   -0.3195   -0.7693 H         1 <0>         0.0875
     45 H10         7.2108    1.2067   -0.5988 H         1 <0>         0.1015
     46 H11         7.1567    0.9001    1.8612 H         1 <0>         0.0901
     47 H12         8.0566   -0.6262    1.6908 H         1 <0>         0.0860
     48 H13         9.9447    0.6028    0.6548 H         1 <0>         0.1247
     49 H14         9.0448    2.1291    0.8253 H         1 <0>         0.1297
     50 H15         8.7708    3.1293    3.2359 H         1 <0>         0.2206
     51 H16        10.0176    2.6906    5.5040 H         1 <0>         0.2277
     52 H17        10.8953   -0.4709    2.8043 H         1 <0>         0.2583
     53 H18         6.9998   -2.3863    0.2332 H         1 <0>         0.0922
     54 H19         5.2208   -2.3945    0.1738 H         1 <0>         0.1083
     55 H20         4.0483   -2.5867   -1.8873 H         1 <0>         0.1412
     56 H21         4.0728   -3.2165   -4.2398 H         1 <0>         0.1445
     57 H22         5.3492   -3.6665   -6.3063 H         1 <0>         0.1510
     58 H23         7.4819   -3.8046   -7.4636 H         1 <0>         0.1395
     59 H24         9.5765   -2.6776   -3.8971 H         1 <0>         0.1415
     60 H25         8.2873   -2.2189   -1.8329 H         1 <0>         0.1332
     61 H26         9.3359   -4.7643   -7.7406 H         1 <0>         0.4482
     62 H27        10.8681   -1.9368   -5.3843 H         1 <0>         0.4431
     63 H28        11.8096   -2.6223   -6.5952 H         1 <0>         0.4342
     64 H29        10.9231   -4.2583   -7.9585 H         1 <0>         0.4346
@<TRIPOS>BOND
     1    1    6 ar
     2    1    2 ar
     3    1   37 1
     4    2    3 ar
     5    2   38 1
     6    3    4 ar
     7    3   39 1
     8    4   10 ar
     9    4    5 ar
    10    5    6 ar
    11    5    7 ar
    12    6   40 1
    13    7    8 ar
    14    7   41 1
    15    8    9 ar
    16    8   42 1
    17    9   10 ar
    18    9   43 1
    19   10   11 1
    20   11   12 2
    21   11   13 am
    22   13   14 1
    23   13   23 1
    24   14   15 1
    25   14   44 1
    26   14   45 1
    27   15   16 1
    28   15   46 1
    29   15   47 1
    30   16   17 1
    31   16   48 1
    32   16   49 1
    33   17   22 2
    34   17   18 1
    35   18   19 2
    36   18   50 1
    37   19   20 1
    38   19   51 1
    39   20   21 1
    40   20   22 1
    41   22   52 1
    42   23   24 1
    43   23   53 1
    44   23   54 1
    45   24   33 ar
    46   24   25 ar
    47   25   26 ar
    48   25   55 1
    49   26   27 ar
    50   26   56 1
    51   27   32 ar
    52   27   28 ar
    53   28   29 ar
    54   28   57 1
    55   29   30 ar
    56   29   58 1
    57   30   31 ar
    58   30   34 1
    59   31   32 ar
    60   31   59 1
    61   32   33 ar
    62   33   60 1
    63   34   35 2
    64   34   36 1
    65   35   61 1
    66   35   64 1
    67   36   62 1
    68   36   63 1
@<TRIPOS>MOLECULE
CHEMBL196182__1
   63    67     0     0     0
SMALL
USER_CHARGES

@<TRIPOS>ATOM
      1 C1          0.8583   -0.1984   -3.0971 C.ar      1 <0>        -0.1095
      2 C2          2.0491    0.5233   -3.1378 C.ar      1 <0>        -0.1012
      3 C3          2.9775    0.3990   -2.1483 C.ar      1 <0>        -0.1103
      4 C4          2.7341   -0.4659   -1.0728 C.ar      1 <0>        -0.0150
      5 C5          1.5241   -1.2001   -1.0292 C.ar      1 <0>        -0.0548
      6 C6          0.5890   -1.0475   -2.0677 C.ar      1 <0>        -0.1035
      7 C7          1.2785   -2.0675    0.0492 C.ar      1 <0>        -0.0735
      8 C8          2.2000   -2.1992    1.0447 C.ar      1 <0>        -0.1297
      9 C9          3.3923   -1.4871    1.0197 C.ar      1 <0>        -0.0815
     10 C10         3.6765   -0.6203   -0.0253 C.ar      1 <0>        -0.1205
     11 C11         4.9446    0.1320   -0.0463 C.2       1 <0>         0.5708
     12 O1          4.9309    1.3441   -0.1428 O.2       1 <0>        -0.5154
     13 N1          6.1188   -0.5238    0.0415 N.am      1 <0>        -0.6047
     14 C12         6.1419   -1.9886    0.0346 C.3       1 <0>         0.1020
     15 C13         6.3863   -2.4881   -1.3908 C.3       1 <0>        -0.1561
     16 C14         6.4104   -4.0179   -1.3980 C.3       1 <0>         0.1103
     17 N2          6.6444   -4.4962   -2.7628 N.pl3     1 <0>        -0.4618
     18 C15         5.6876   -4.7725   -3.7018 C.2       1 <0>        -0.0541
     19 C16         6.3354   -5.1814   -4.8094 C.2       1 <0>        -0.0254
     20 N3          7.6518   -5.1555   -4.5537 N.2       1 <0>        -0.4913
     21 C17         7.8446   -4.7413   -3.3313 C.2       1 <0>         0.1784
     22 C18         7.3719    0.2281    0.1437 C.3       1 <0>         0.1454
     23 C19         7.6910    0.4775    1.5953 C.ar      1 <0>        -0.0844
     24 C20         7.2106    1.6292    2.2160 C.ar      1 <0>        -0.0613
     25 C21         7.4805    1.8846    3.5256 C.ar      1 <0>        -0.1134
     26 C22         8.2544    0.9763    4.2672 C.ar      1 <0>        -0.0107
     27 C23         8.5499    1.2122    5.6224 C.ar      1 <0>        -0.0783
     28 C24         9.2996    0.3204    6.3189 C.ar      1 <0>        -0.0962
     29 C25         9.7898   -0.8452    5.7041 C.ar      1 <0>        -0.1580
     30 C26         9.5160   -1.1060    4.3726 C.ar      1 <0>        -0.0161
     31 C27         8.7430   -0.1956    3.6361 C.ar      1 <0>        -0.0661
     32 C28         8.4395   -0.4278    2.2825 C.ar      1 <0>        -0.0848
     33 C29        10.6048   -1.8000    6.4862 C.cat     1 <0>         0.6021
     34 N4         11.3638   -1.3622    7.4892 N.pl3     1 <0>        -0.7578
     35 N5         10.5798   -3.0976    6.1875 N.pl3     1 <0>        -0.7620
     36 H1          0.1364   -0.0793   -3.8916 H         1 <0>         0.1295
     37 H2          2.2392    1.1905   -3.9655 H         1 <0>         0.1280
     38 H3          3.8968    0.9640   -2.1928 H         1 <0>         0.1297
     39 H4         -0.3384   -1.6006   -2.0487 H         1 <0>         0.1331
     40 H5          0.3577   -2.6304    0.0892 H         1 <0>         0.1343
     41 H6          1.9994   -2.8690    1.8679 H         1 <0>         0.1312
     42 H7          4.1053   -1.6098    1.8215 H         1 <0>         0.1260
     43 H8          6.9413   -2.3424    0.6856 H         1 <0>         0.0812
     44 H9          5.1856   -2.3688    0.3939 H         1 <0>         0.0979
     45 H10         5.5869   -2.1343   -2.0418 H         1 <0>         0.0785
     46 H11         7.3426   -2.1079   -1.7501 H         1 <0>         0.0771
     47 H12         7.2099   -4.3717   -0.7469 H         1 <0>         0.0940
     48 H13         5.4542   -4.3981   -1.0387 H         1 <0>         0.0941
     49 H14         4.6187   -4.6805   -3.5782 H         1 <0>         0.1732
     50 H15         5.8755   -5.4782   -5.7405 H         1 <0>         0.1706
     51 H16         8.8048   -4.6175   -2.8527 H         1 <0>         0.2018
     52 H17         8.1784   -0.3462   -0.3121 H         1 <0>         0.0953
     53 H18         7.2669    1.1814   -0.3742 H         1 <0>         0.1044
     54 H19         6.6153    2.3298    1.6492 H         1 <0>         0.1427
     55 H20         7.1017    2.7818    3.9924 H         1 <0>         0.1423
     56 H21         8.1804    2.1030    6.1085 H         1 <0>         0.1487
     57 H22         9.5228    0.5088    7.3587 H         1 <0>         0.1370
     58 H23         9.8948   -2.0024    3.9043 H         1 <0>         0.1427
     59 H24         8.8015   -1.3182    1.7900 H         1 <0>         0.1370
     60 H25        11.3821   -0.4171    7.7068 H         1 <0>         0.4470
     61 H26        10.0270   -3.4166    5.4570 H         1 <0>         0.4448
     62 H27        11.1143   -3.7238    6.7004 H         1 <0>         0.4331
     63 H28        11.8983   -1.9883    8.0021 H         1 <0>         0.4329
@<TRIPOS>BOND
     1    1    6 ar
     2    1    2 ar
     3    1   36 1
     4    2    3 ar
     5    2   37 1
     6    3    4 ar
     7    3   38 1
     8    4   10 ar
     9    4    5 ar
    10    5    6 ar
    11    5    7 ar
    12    6   39 1
    13    7    8 ar
    14    7   40 1
    15    8    9 ar
    16    8   41 1
    17    9   10 ar
    18    9   42 1
    19   10   11 1
    20   11   12 2
    21   11   13 am
    22   13   14 1
    23   13   22 1
    24   14   15 1
    25   14   43 1
    26   14   44 1
    27   15   16 1
    28   15   45 1
    29   15   46 1
    30   16   17 1
    31   16   47 1
    32   16   48 1
    33   17   21 1
    34   17   18 1
    35   18   19 2
    36   18   49 1
    37   19   20 1
    38   19   50 1
    39   20   21 2
    40   21   51 1
    41   22   23 1
    42   22   52 1
    43   22   53 1
    44   23   32 ar
    45   23   24 ar
    46   24   25 ar
    47   24   54 1
    48   25   26 ar
    49   25   55 1
    50   26   31 ar
    51   26   27 ar
    52   27   28 ar
    53   27   56 1
    54   28   29 ar
    55   28   57 1
    56   29   30 ar
    57   29   33 1
    58   30   31 ar
    59   30   58 1
    60   31   32 ar
    61   32   59 1
    62   33   34 2
    63   33   35 1
    64   34   60 1
    65   34   63 1
    66   35   61 1
    67   35   62 1
@<TRIPOS>MOLECULE
CHEMBL199271
   49    50     0     0     0
SMALL
USER_CHARGES

@<TRIPOS>ATOM
      1 C1         -0.0187    1.5258    0.0104 C.3       1 <0>        -0.1523
      2 C2          0.0021   -0.0041    0.0020 C.3       1 <0>         0.0538
      3 O1          0.6932   -0.4774    1.1597 O.3       1 <0>        -0.3110
      4 C3          0.8020   -1.8242    1.3057 C.ar      1 <0>         0.1712
      5 C4          1.4558   -2.3525    2.4098 C.ar      1 <0>        -0.1724
      6 C5          1.5672   -3.7217    2.5585 C.ar      1 <0>         0.0073
      7 C6          1.0281   -4.5682    1.6088 C.ar      1 <0>        -0.1789
      8 C7          0.3729   -4.0448    0.5030 C.ar      1 <0>         0.1714
      9 C8          0.2549   -2.6715    0.3545 C.ar      1 <0>        -0.3011
     10 O2         -0.1571   -4.8779   -0.4307 O.3       1 <0>        -0.3114
     11 C9         -0.8174   -4.2698   -1.5426 C.3       1 <0>         0.0538
     12 C10        -1.3448   -5.3579   -2.4800 C.3       1 <0>        -0.1522
     13 C11         2.2781   -4.2927    3.7583 C.3       1 <0>         0.0984
     14 C12         3.6791   -4.6897    3.3701 C.2       1 <0>         0.4948
     15 O3          4.5900   -3.8853    3.4684 O.co2     1 <0>        -0.6713
     16 O4          3.9016   -5.8153    2.9578 O.co2     1 <0>        -0.6669
     17 N1          1.5528   -5.4705    4.2410 N.pl3     1 <0>        -0.6586
     18 C13         1.6677   -5.8613    5.5710 C.ar      1 <0>         0.3058
     19 C14         2.4676   -5.1291    6.4436 C.ar      1 <0>        -0.1977
     20 C15         2.5828   -5.5132    7.7603 C.ar      1 <0>        -0.0010
     21 C16         1.8958   -6.6394    8.2208 C.ar      1 <0>        -0.2554
     22 C17         1.0936   -7.3725    7.3426 C.ar      1 <0>        -0.0026
     23 C18         0.9779   -6.9806    6.0282 C.ar      1 <0>        -0.2060
     24 C19         2.0177   -7.0543    9.6328 C.cat     1 <0>         0.6019
     25 N2          1.3619   -8.1287   10.0707 N.pl3     1 <0>        -0.7834
     26 N3          2.7836   -6.3543   10.4693 N.pl3     1 <0>        -0.7814
     27 H1          1.0039    1.9031    0.0027 H         1 <0>         0.0681
     28 H2         -0.5459    1.8868   -0.8726 H         1 <0>         0.0780
     29 H3         -0.5289    1.8773    0.9072 H         1 <0>         0.0664
     30 H4         -1.0205   -0.3814    0.0098 H         1 <0>         0.0598
     31 H5          0.5123   -0.3556   -0.8948 H         1 <0>         0.0612
     32 H6          1.8783   -1.6929    3.1534 H         1 <0>         0.1349
     33 H7          1.1170   -5.6380    1.7268 H         1 <0>         0.1314
     34 H8         -0.2582   -2.2623   -0.5032 H         1 <0>         0.1325
     35 H9         -1.6498   -3.6643   -1.1841 H         1 <0>         0.0599
     36 H10        -0.1129   -3.6362   -2.0815 H         1 <0>         0.0612
     37 H11        -2.0493   -5.9915   -1.9411 H         1 <0>         0.0662
     38 H12        -1.8484   -4.8941   -3.3281 H         1 <0>         0.0781
     39 H13        -0.5123   -5.9634   -2.8385 H         1 <0>         0.0681
     40 H14         2.3187   -3.5422    4.5478 H         1 <0>         0.0994
     41 H15         0.9924   -5.9778    3.6331 H         1 <0>         0.4090
     42 H16         2.9986   -4.2589    6.0870 H         1 <0>         0.1470
     43 H17         3.2038   -4.9449    8.4368 H         1 <0>         0.1290
     44 H18         0.5617   -8.2436    7.6957 H         1 <0>         0.1279
     45 H19         0.3545   -7.5443    5.3500 H         1 <0>         0.1396
     46 H20         0.8044   -8.6382    9.4619 H         1 <0>         0.4392
     47 H21         3.2610   -5.5723   10.1506 H         1 <0>         0.4408
     48 H22         2.8637   -6.6269   11.3967 H         1 <0>         0.4238
     49 H23         1.4420   -8.4013   10.9981 H         1 <0>         0.4237
@<TRIPOS>BOND
     1    1    2 1
     2    1   27 1
     3    1   28 1
     4    1   29 1
     5    2    3 1
     6    2   30 1
     7    2   31 1
     8    3    4 1
     9    4    9 ar
    10    4    5 ar
    11    5    6 ar
    12    5   32 1
    13    6    7 ar
    14    6   13 1
    15    7    8 ar
    16    7   33 1
    17    8    9 ar
    18    8   10 1
    19    9   34 1
    20   10   11 1
    21   11   12 1
    22   11   35 1
    23   11   36 1
    24   12   37 1
    25   12   38 1
    26   12   39 1
    27   13   14 1
    28   13   17 1
    29   13   40 1
    30   14   15 2
    31   14   16 1
    32   17   18 1
    33   17   41 1
    34   18   23 ar
    35   18   19 ar
    36   19   20 ar
    37   19   42 1
    38   20   21 ar
    39   20   43 1
    40   21   22 ar
    41   21   24 1
    42   22   23 ar
    43   22   44 1
    44   23   45 1
    45   24   25 2
    46   24   26 1
    47   25   46 1
    48   25   49 1
    49   26   47 1
    50   26   48 1
@<TRIPOS>MOLECULE
CHEMBL199271__1
   49    50     0     0     0
SMALL
USER_CHARGES

@<TRIPOS>ATOM
      1 C1         -0.0187    1.5258    0.0104 C.3       1 <0>        -0.1523
      2 C2          0.0021   -0.0041    0.0020 C.3       1 <0>         0.0538
      3 O1          0.6932   -0.4774    1.1597 O.3       1 <0>        -0.3109
      4 C3          0.8020   -1.8242    1.3057 C.ar      1 <0>         0.1719
      5 C4          1.4558   -2.3525    2.4098 C.ar      1 <0>        -0.1679
      6 C5          1.5672   -3.7217    2.5585 C.ar      1 <0>         0.0118
      7 C6          1.0281   -4.5682    1.6088 C.ar      1 <0>        -0.1848
      8 C7          0.3729   -4.0448    0.5030 C.ar      1 <0>         0.1719
      9 C8          0.2549   -2.6715    0.3545 C.ar      1 <0>        -0.3012
     10 O2         -0.1571   -4.8779   -0.4307 O.3       1 <0>        -0.3120
     11 C9         -0.8174   -4.2698   -1.5426 C.3       1 <0>         0.0539
     12 C10        -1.3448   -5.3579   -2.4800 C.3       1 <0>        -0.1522
     13 C11         2.2781   -4.2927    3.7583 C.3       1 <0>         0.0969
     14 C12         1.2629   -4.7329    4.7814 C.2       1 <0>         0.4936
     15 O3          1.0930   -5.9204    4.9998 O.co2     1 <0>        -0.6689
     16 O4          0.6114   -3.9017    5.3906 O.co2     1 <0>        -0.6683
     17 N1          3.0859   -5.4431    3.3455 N.pl3     1 <0>        -0.6572
     18 C13         4.1982   -5.8161    4.0931 C.ar      1 <0>         0.3118
     19 C14         4.5391   -5.0989    5.2363 C.ar      1 <0>        -0.1951
     20 C15         5.6388   -5.4660    5.9782 C.ar      1 <0>        -0.0018
     21 C16         6.4132   -6.5596    5.5827 C.ar      1 <0>        -0.2560
     22 C17         6.0686   -7.2777    4.4347 C.ar      1 <0>        -0.0025
     23 C18         4.9647   -6.9092    3.6997 C.ar      1 <0>        -0.2061
     24 C19         7.5940   -6.9556    6.3763 C.cat     1 <0>         0.6016
     25 N2          8.3318   -7.9990    5.9980 N.pl3     1 <0>        -0.7837
     26 N3          7.9218   -6.2695    7.4709 N.pl3     1 <0>        -0.7819
     27 H1          1.0039    1.9031    0.0027 H         1 <0>         0.0663
     28 H2         -0.5459    1.8868   -0.8726 H         1 <0>         0.0779
     29 H3         -0.5289    1.8773    0.9072 H         1 <0>         0.0682
     30 H4         -1.0205   -0.3814    0.0098 H         1 <0>         0.0613
     31 H5          0.5123   -0.3556   -0.8948 H         1 <0>         0.0597
     32 H6          1.8783   -1.6929    3.1534 H         1 <0>         0.1344
     33 H7          1.1170   -5.6380    1.7268 H         1 <0>         0.1291
     34 H8         -0.2582   -2.2623   -0.5032 H         1 <0>         0.1325
     35 H9         -1.6498   -3.6643   -1.1841 H         1 <0>         0.0614
     36 H10        -0.1129   -3.6362   -2.0815 H         1 <0>         0.0600
     37 H11        -2.0493   -5.9915   -1.9411 H         1 <0>         0.0680
     38 H12        -1.8484   -4.8941   -3.3281 H         1 <0>         0.0782
     39 H13        -0.5123   -5.9634   -2.8385 H         1 <0>         0.0661
     40 H14         2.9257   -3.5314    4.1933 H         1 <0>         0.0997
     41 H15         2.8452   -5.9446    2.5510 H         1 <0>         0.4079
     42 H16         3.9403   -4.2534    5.5413 H         1 <0>         0.1433
     43 H17         5.9031   -4.9089    6.8649 H         1 <0>         0.1283
     44 H18         6.6656   -8.1232    4.1265 H         1 <0>         0.1275
     45 H19         4.6952   -7.4666    2.8147 H         1 <0>         0.1390
     46 H20         8.0932   -8.4984    5.2013 H         1 <0>         0.4391
     47 H21         7.3848   -5.5101    7.7463 H         1 <0>         0.4405
     48 H22         8.6974   -6.5296    7.9922 H         1 <0>         0.4236
     49 H23         9.1074   -8.2591    6.5192 H         1 <0>         0.4235
@<TRIPOS>BOND
     1    1    2 1
     2    1   27 1
     3    1   28 1
     4    1   29 1
     5    2    3 1
     6    2   30 1
     7    2   31 1
     8    3    4 1
     9    4    9 ar
    10    4    5 ar
    11    5    6 ar
    12    5   32 1
    13    6    7 ar
    14    6   13 1
    15    7    8 ar
    16    7   33 1
    17    8    9 ar
    18    8   10 1
    19    9   34 1
    20   10   11 1
    21   11   12 1
    22   11   35 1
    23   11   36 1
    24   12   37 1
    25   12   38 1
    26   12   39 1
    27   13   14 1
    28   13   17 1
    29   13   40 1
    30   14   15 2
    31   14   16 1
    32   17   18 1
    33   17   41 1
    34   18   23 ar
    35   18   19 ar
    36   19   20 ar
    37   19   42 1
    38   20   21 ar
    39   20   43 1
    40   21   22 ar
    41   21   24 1
    42   22   23 ar
    43   22   44 1
    44   23   45 1
    45   24   25 2
    46   24   26 1
    47   25   46 1
    48   25   49 1
    49   26   47 1
    50   26   48 1
@<TRIPOS>MOLECULE
CHEMBL338641
   61    63     0     0     0
SMALL
USER_CHARGES

@<TRIPOS>ATOM
      1 C1         -0.0359    1.5039    0.0219 C.3       1 <0>        -0.1596
      2 C2         -0.0041   -0.0257    0.0076 C.3       1 <0>         0.1861
      3 C3          0.7292   -0.5244    1.2260 C.ar      1 <0>        -0.0583
      4 C4          2.1119   -0.5248    1.2481 C.ar      1 <0>        -0.1551
      5 C5          2.7876   -0.9816    2.3643 C.ar      1 <0>        -0.0714
      6 C6          2.0826   -1.4394    3.4608 C.ar      1 <0>        -0.2061
      7 C7          0.6956   -1.4401    3.4412 C.ar      1 <0>         0.1390
      8 C8          0.0197   -0.9754    2.3220 C.ar      1 <0>        -0.1392
      9 O1         -0.0001   -1.8898    4.5184 O.3       1 <0>        -0.3068
     10 C9          0.7614   -2.3477    5.6375 C.3       1 <0>         0.1029
     11 C10        -0.1731   -2.8045    6.7280 C.ar      1 <0>        -0.1019
     12 C11        -0.6131   -1.9063    7.6823 C.ar      1 <0>        -0.0947
     13 C12        -1.4703   -2.3253    8.6826 C.ar      1 <0>        -0.1221
     14 C13        -1.8878   -3.6423    8.7283 C.ar      1 <0>        -0.1067
     15 C14        -1.4485   -4.5402    7.7735 C.ar      1 <0>        -0.1227
     16 C15        -0.5947   -4.1203    6.7708 C.ar      1 <0>        -0.0953
     17 N1          0.6840   -0.4886   -1.2000 N.am      1 <0>        -0.7152
     18 C16         0.0025   -0.6207   -2.3552 C.2       1 <0>         0.5114
     19 O2         -1.1805   -0.3563   -2.3951 O.2       1 <0>        -0.5333
     20 C17         0.7104   -1.0969   -3.5975 C.3       1 <0>         0.1159
     21 N2         -0.2413   -1.1555   -4.7097 N.am      1 <0>        -0.7197
     22 C18         0.1705   -1.5571   -5.9286 C.2       1 <0>         0.7103
     23 O3          1.3319   -1.8708   -6.1050 O.2       1 <0>        -0.5658
     24 N3         -0.7050   -1.6110   -6.9518 N.am      1 <0>        -0.6838
     25 C19        -0.2603   -1.9337   -8.2338 C.ar      1 <0>         0.2468
     26 C20         0.7671   -2.8567   -8.4004 C.ar      1 <0>        -0.1245
     27 C21         1.2086   -3.1770   -9.6647 C.ar      1 <0>        -0.0327
     28 C22         0.6233   -2.5744  -10.7807 C.ar      1 <0>        -0.1856
     29 C23        -0.4085   -1.6483  -10.6102 C.ar      1 <0>        -0.0306
     30 C24        -0.8490   -1.3361   -9.3436 C.ar      1 <0>        -0.1495
     31 C25         1.0950   -2.9154  -12.1386 C.cat     1 <0>         0.6033
     32 N4          0.5357   -2.3398  -13.2023 N.pl3     1 <0>        -0.7664
     33 N5          2.0796   -3.7987  -12.2996 N.pl3     1 <0>        -0.7654
     34 H1          0.9840    1.8885    0.0149 H         1 <0>         0.0625
     35 H2         -0.5663    1.8645   -0.8593 H         1 <0>         0.0662
     36 H3         -0.5479    1.8483    0.9204 H         1 <0>         0.0736
     37 H4         -1.0240   -0.4104    0.0147 H         1 <0>         0.1020
     38 H5          2.6648   -0.1680    0.3917 H         1 <0>         0.1222
     39 H6          3.8675   -0.9809    2.3791 H         1 <0>         0.1291
     40 H7          2.6109   -1.7968    4.3323 H         1 <0>         0.1307
     41 H8         -1.0601   -0.9704    2.3061 H         1 <0>         0.1336
     42 H9          1.3950   -3.1796    5.3299 H         1 <0>         0.0727
     43 H10         1.3846   -1.5347    6.0100 H         1 <0>         0.0734
     44 H11        -0.2869   -0.8774    7.6465 H         1 <0>         0.1244
     45 H12        -1.8135   -1.6238    9.4285 H         1 <0>         0.1271
     46 H13        -2.5569   -3.9698    9.5102 H         1 <0>         0.1262
     47 H14        -1.7744   -5.5693    7.8095 H         1 <0>         0.1266
     48 H15        -0.2544   -4.8209    6.0226 H         1 <0>         0.1236
     49 H16         1.6302   -0.7001   -1.1682 H         1 <0>         0.4054
     50 H17         1.5157   -0.4051   -3.8445 H         1 <0>         0.1063
     51 H18         1.1251   -2.0894   -3.4215 H         1 <0>         0.1065
     52 H19        -1.1678   -0.9053   -4.5690 H         1 <0>         0.4147
     53 H20        -1.6443   -1.4255   -6.7967 H         1 <0>         0.4207
     54 H21         1.2192   -3.3222   -7.5371 H         1 <0>         0.1647
     55 H22         2.0067   -3.8931   -9.7933 H         1 <0>         0.1402
     56 H23        -0.8629   -1.1808  -11.4712 H         1 <0>         0.1412
     57 H24        -1.6495   -0.6233   -9.2113 H         1 <0>         0.1515
     58 H25        -0.1811   -1.6968  -13.0850 H         1 <0>         0.4431
     59 H26         2.4867   -4.2177  -11.5253 H         1 <0>         0.4438
     60 H27         2.3893   -4.0226  -13.1912 H         1 <0>         0.4323
     61 H28         0.8454   -2.5637  -14.0938 H         1 <0>         0.4323
@<TRIPOS>BOND
     1    1    2 1
     2    1   34 1
     3    1   35 1
     4    1   36 1
     5    2    3 1
     6    2   17 1
     7    2   37 1
     8    3    8 ar
     9    3    4 ar
    10    4    5 ar
    11    4   38 1
    12    5    6 ar
    13    5   39 1
    14    6    7 ar
    15    6   40 1
    16    7    8 ar
    17    7    9 1
    18    8   41 1
    19    9   10 1
    20   10   11 1
    21   10   42 1
    22   10   43 1
    23   11   16 ar
    24   11   12 ar
    25   12   13 ar
    26   12   44 1
    27   13   14 ar
    28   13   45 1
    29   14   15 ar
    30   14   46 1
    31   15   16 ar
    32   15   47 1
    33   16   48 1
    34   17   18 am
    35   17   49 1
    36   18   19 2
    37   18   20 1
    38   20   21 1
    39   20   50 1
    40   20   51 1
    41   21   22 am
    42   21   52 1
    43   22   23 2
    44   22   24 am
    45   24   25 1
    46   24   53 1
    47   25   30 ar
    48   25   26 ar
    49   26   27 ar
    50   26   54 1
    51   27   28 ar
    52   27   55 1
    53   28   29 ar
    54   28   31 1
    55   29   30 ar
    56   29   56 1
    57   30   57 1
    58   31   32 2
    59   31   33 1
    60   32   58 1
    61   32   61 1
    62   33   59 1
    63   33   60 1
@<TRIPOS>MOLECULE
CHEMBL338641__1
   61    63     0     0     0
SMALL
USER_CHARGES

@<TRIPOS>ATOM
      1 C1         -0.0033    1.5479    0.0220 C.3       1 <0>        -0.1596
      2 C2          0.0065    0.0180    0.0078 C.3       1 <0>         0.1861
      3 C3          0.7070   -0.4683   -1.2347 C.ar      1 <0>        -0.0582
      4 C4          2.0887   -0.4986   -1.2818 C.ar      1 <0>        -0.1552
      5 C5          2.7343   -0.9442   -2.4201 C.ar      1 <0>        -0.0713
      6 C6          2.0001   -1.3602   -3.5141 C.ar      1 <0>        -0.2061
      7 C7          0.6140   -1.3308   -3.4694 C.ar      1 <0>         0.1390
      8 C8         -0.0316   -0.8889   -2.3235 C.ar      1 <0>        -0.1392
      9 O1         -0.1105   -1.7395   -4.5441 O.3       1 <0>        -0.3068
     10 C9          0.6209   -2.1873   -5.6872 C.3       1 <0>         0.1029
     11 C10        -0.3426   -2.5974   -6.7710 C.ar      1 <0>        -0.1018
     12 C11        -0.7986   -3.9009   -6.8334 C.ar      1 <0>        -0.0952
     13 C12        -1.6824   -4.2771   -7.8275 C.ar      1 <0>        -0.1227
     14 C13        -2.1105   -3.3497   -8.7590 C.ar      1 <0>        -0.1067
     15 C14        -1.6552   -2.0460   -8.6960 C.ar      1 <0>        -0.1221
     16 C15        -0.7748   -1.6688   -7.6993 C.ar      1 <0>        -0.0947
     17 N1          0.7128   -0.4768    1.1920 N.am      1 <0>        -0.7152
     18 C16         0.0537   -0.6206    2.3587 C.2       1 <0>         0.5114
     19 O2         -1.1243   -0.3403    2.4283 O.2       1 <0>        -0.5334
     20 C17         0.7803   -1.1296    3.5769 C.3       1 <0>         0.1159
     21 N2         -0.1488   -1.1954    4.7077 N.am      1 <0>        -0.7197
     22 C18         0.2825   -1.6252    5.9101 C.2       1 <0>         0.7103
     23 O3          1.4425   -1.9585    6.0563 O.2       1 <0>        -0.5658
     24 N3         -0.5722   -1.6857    6.9504 N.am      1 <0>        -0.6839
     25 C19        -0.1519   -2.2202    8.1682 C.ar      1 <0>         0.2469
     26 C20         1.1549   -2.0188    8.6005 C.ar      1 <0>        -0.1245
     27 C21         1.5730   -2.5456    9.8020 C.ar      1 <0>        -0.0327
     28 C22         0.6834   -3.2825   10.5873 C.ar      1 <0>        -0.1856
     29 C23        -0.6283   -3.4826   10.1506 C.ar      1 <0>        -0.0306
     30 C24        -1.0419   -2.9488    8.9506 C.ar      1 <0>        -0.1495
     31 C25         1.1289   -3.8495   11.8767 C.cat     1 <0>         0.6033
     32 N4          0.2790   -4.5522   12.6247 N.pl3     1 <0>        -0.7664
     33 N5          2.3806   -3.6581   12.2917 N.pl3     1 <0>        -0.7654
     34 H1          1.0220    1.9179    0.0145 H         1 <0>         0.0625
     35 H2         -0.5289    1.9161   -0.8591 H         1 <0>         0.0735
     36 H3         -0.5100    1.8997    0.9207 H         1 <0>         0.0663
     37 H4         -1.0188   -0.3520    0.0152 H         1 <0>         0.1020
     38 H5          2.6645   -0.1731   -0.4280 H         1 <0>         0.1222
     39 H6          3.8135   -0.9668   -2.4544 H         1 <0>         0.1291
     40 H7          2.5049   -1.7075   -4.4034 H         1 <0>         0.1307
     41 H8         -1.1108   -0.8696   -2.2845 H         1 <0>         0.1337
     42 H9          1.2555   -1.3795   -6.0518 H         1 <0>         0.0734
     43 H10         1.2410   -3.0400   -5.4106 H         1 <0>         0.0728
     44 H11        -0.4641   -4.6254   -6.1057 H         1 <0>         0.1236
     45 H12        -2.0381   -5.2956   -7.8768 H         1 <0>         0.1266
     46 H13        -2.8005   -3.6438   -9.5361 H         1 <0>         0.1262
     47 H14        -1.9895   -1.3215   -9.4239 H         1 <0>         0.1271
     48 H15        -0.4220   -0.6493   -7.6478 H         1 <0>         0.1244
     49 H16         1.6549   -0.7010    1.1364 H         1 <0>         0.4053
     50 H17         1.1768   -2.1245    3.3742 H         1 <0>         0.1062
     51 H18         1.6006   -0.4541    3.8194 H         1 <0>         0.1066
     52 H19        -1.0743   -0.9295    4.5911 H         1 <0>         0.4148
     53 H20        -1.4797   -1.3575    6.8522 H         1 <0>         0.4207
     54 H21         1.8423   -1.4489    7.9930 H         1 <0>         0.1647
     55 H22         2.5879   -2.3894   10.1368 H         1 <0>         0.1402
     56 H23        -1.3185   -4.0519   10.7556 H         1 <0>         0.1412
     57 H24        -2.0571   -3.0998    8.6144 H         1 <0>         0.1515
     58 H25        -0.6321   -4.6915   12.3226 H         1 <0>         0.4431
     59 H26         2.9992   -3.1465   11.7472 H         1 <0>         0.4438
     60 H27         2.6731   -4.0304   13.1383 H         1 <0>         0.4323
     61 H28         0.5716   -4.9245   13.4713 H         1 <0>         0.4323
@<TRIPOS>BOND
     1    1    2 1
     2    1   34 1
     3    1   35 1
     4    1   36 1
     5    2    3 1
     6    2   17 1
     7    2   37 1
     8    3    8 ar
     9    3    4 ar
    10    4    5 ar
    11    4   38 1
    12    5    6 ar
    13    5   39 1
    14    6    7 ar
    15    6   40 1
    16    7    8 ar
    17    7    9 1
    18    8   41 1
    19    9   10 1
    20   10   11 1
    21   10   42 1
    22   10   43 1
    23   11   16 ar
    24   11   12 ar
    25   12   13 ar
    26   12   44 1
    27   13   14 ar
    28   13   45 1
    29   14   15 ar
    30   14   46 1
    31   15   16 ar
    32   15   47 1
    33   16   48 1
    34   17   18 am
    35   17   49 1
    36   18   19 2
    37   18   20 1
    38   20   21 1
    39   20   50 1
    40   20   51 1
    41   21   22 am
    42   21   52 1
    43   22   23 2
    44   22   24 am
    45   24   25 1
    46   24   53 1
    47   25   30 ar
    48   25   26 ar
    49   26   27 ar
    50   26   54 1
    51   27   28 ar
    52   27   55 1
    53   28   29 ar
    54   28   31 1
    55   29   30 ar
    56   29   56 1
    57   30   57 1
    58   31   32 2
    59   31   33 1
    60   32   58 1
    61   32   61 1
    62   33   59 1
    63   33   60 1
@<TRIPOS>MOLECULE
CHEMBL177450
   53    55     0     0     0
SMALL
USER_CHARGES

@<TRIPOS>ATOM
      1 C1          0.0374    1.3220    0.0924 C.3       1 <0>        -0.1608
      2 C2         -0.0220   -0.2061    0.0474 C.3       1 <0>         0.1887
      3 C3          0.6610   -0.7715    1.2660 C.ar      1 <0>        -0.0888
      4 C4          2.0407   -0.8545    1.3067 C.ar      1 <0>        -0.1053
      5 C5          2.6753   -1.3709    2.4219 C.ar      1 <0>        -0.0993
      6 C6          1.9266   -1.8068    3.5011 C.ar      1 <0>         0.0825
      7 C7          0.5357   -1.7242    3.4596 C.ar      1 <0>         0.1023
      8 C8         -0.0937   -1.2004    2.3425 C.ar      1 <0>        -0.1095
      9 N1         -0.2109   -2.1718    4.5588 N.am      1 <0>        -0.6621
     10 C9          0.4166   -2.3736    5.7379 C.2       1 <0>         0.4903
     11 O1         -0.2027   -2.7905    6.6938 O.2       1 <0>        -0.5009
     12 C10         1.8900   -2.0791    5.8606 C.3       1 <0>         0.0499
     13 O2          2.5338   -2.3164    4.6060 O.3       1 <0>        -0.2997
     14 N2          0.6563   -0.6859   -1.1592 N.am      1 <0>        -0.7163
     15 C11        -0.0136   -0.7544   -2.3267 C.2       1 <0>         0.5121
     16 O3         -1.1779   -0.4188   -2.3784 O.2       1 <0>        -0.5328
     17 C12         0.6841   -1.2479   -3.5679 C.3       1 <0>         0.1153
     18 N3         -0.2517   -1.2277   -4.6949 N.am      1 <0>        -0.7191
     19 C13         0.1546   -1.6296   -5.9155 C.2       1 <0>         0.7115
     20 O4          1.2978   -2.0088   -6.0813 O.2       1 <0>        -0.5638
     21 N4         -0.7063   -1.6110   -6.9523 N.am      1 <0>        -0.6827
     22 C14        -0.2612   -1.9336   -8.2342 C.ar      1 <0>         0.2655
     23 C15         0.7095   -2.9166   -8.4051 C.ar      1 <0>        -0.1297
     24 C16         1.1520   -3.2386   -9.6676 C.ar      1 <0>        -0.0119
     25 C17         0.6261   -2.5777  -10.7811 C.ar      1 <0>        -0.2273
     26 C18        -0.3497   -1.5899  -10.6072 C.ar      1 <0>         0.1828
     27 C19        -0.7922   -1.2768   -9.3377 C.ar      1 <0>        -0.1847
     28 F1         -0.8615   -0.9479  -11.6801 F         1 <0>        -0.1189
     29 C20         1.0989   -2.9204  -12.1366 C.cat     1 <0>         0.6127
     30 N5          1.5979   -1.9711  -12.9283 N.pl3     1 <0>        -0.7508
     31 N6          1.0270   -4.1793  -12.5692 N.pl3     1 <0>        -0.7513
     32 H1          1.0784    1.6449    0.1081 H         1 <0>         0.0636
     33 H2         -0.4566    1.7309   -0.7890 H         1 <0>         0.0666
     34 H3         -0.4673    1.6790    0.9902 H         1 <0>         0.0730
     35 H4         -1.0630   -0.5290    0.0318 H         1 <0>         0.1017
     36 H5          2.6250   -0.5145    0.4645 H         1 <0>         0.1334
     37 H6          3.7531   -1.4340    2.4503 H         1 <0>         0.1450
     38 H7         -1.1709   -1.1305    2.3108 H         1 <0>         0.1374
     39 H8         -1.1636   -2.3337    4.4739 H         1 <0>         0.4183
     40 H9          2.0290   -1.0369    6.1483 H         1 <0>         0.1043
     41 H10         2.3273   -2.7262    6.6209 H         1 <0>         0.1504
     42 H11         1.5875   -0.9543   -1.1179 H         1 <0>         0.4056
     43 H12         1.5331   -0.6011   -3.7890 H         1 <0>         0.1073
     44 H13         1.0361   -2.2668   -3.4061 H         1 <0>         0.1075
     45 H14        -1.1637   -0.9252   -4.5626 H         1 <0>         0.4151
     46 H15        -1.6354   -1.3733   -6.8070 H         1 <0>         0.4220
     47 H16         1.1165   -3.4273   -7.5448 H         1 <0>         0.1700
     48 H17         1.9055   -4.0013   -9.7979 H         1 <0>         0.1549
     49 H18        -1.5487   -0.5181   -9.2017 H         1 <0>         0.1622
     50 H19         1.9749   -2.2071  -13.7903 H         1 <0>         0.4336
     51 H20         0.6639   -4.8701  -11.9931 H         1 <0>         0.4488
     52 H21         1.3377   -4.4045  -13.4600 H         1 <0>         0.4333
     53 H22         1.5840   -1.0443  -12.6423 H         1 <0>         0.4479
@<TRIPOS>BOND
     1    1    2 1
     2    1   32 1
     3    1   33 1
     4    1   34 1
     5    2    3 1
     6    2   14 1
     7    2   35 1
     8    3    8 ar
     9    3    4 ar
    10    4    5 ar
    11    4   36 1
    12    5    6 ar
    13    5   37 1
    14    6   13 1
    15    6    7 ar
    16    7    8 ar
    17    7    9 1
    18    8   38 1
    19    9   10 am
    20    9   39 1
    21   10   11 2
    22   10   12 1
    23   12   13 1
    24   12   40 1
    25   12   41 1
    26   14   15 am
    27   14   42 1
    28   15   16 2
    29   15   17 1
    30   17   18 1
    31   17   43 1
    32   17   44 1
    33   18   19 am
    34   18   45 1
    35   19   20 2
    36   19   21 am
    37   21   22 1
    38   21   46 1
    39   22   27 ar
    40   22   23 ar
    41   23   24 ar
    42   23   47 1
    43   24   25 ar
    44   24   48 1
    45   25   26 ar
    46   25   29 1
    47   26   27 ar
    48   26   28 1
    49   27   49 1
    50   29   30 2
    51   29   31 1
    52   30   50 1
    53   30   53 1
    54   31   51 1
    55   31   52 1
@<TRIPOS>MOLECULE
CHEMBL177450__1
   53    55     0     0     0
SMALL
USER_CHARGES

@<TRIPOS>ATOM
      1 C1         -0.0248    1.7105    0.0989 C.3       1 <0>        -0.1609
      2 C2          0.0728    0.1842    0.0571 C.3       1 <0>         0.1887
      3 C3          0.8296   -0.2372   -1.1761 C.ar      1 <0>        -0.0887
      4 C4          2.2114   -0.1874   -1.1875 C.ar      1 <0>        -0.1056
      5 C5          2.9135   -0.5737   -2.3149 C.ar      1 <0>        -0.0992
      6 C6          2.2304   -1.0110   -3.4362 C.ar      1 <0>         0.0824
      7 C7          0.8374   -1.0600   -3.4251 C.ar      1 <0>         0.1023
      8 C8          0.1402   -0.6778   -2.2909 C.ar      1 <0>        -0.1095
      9 N1          0.1576   -1.5026   -4.5688 N.am      1 <0>        -0.6620
     10 C9          0.8468   -2.1609   -5.5262 C.2       1 <0>         0.4900
     11 O1          0.2863   -2.5254   -6.5382 O.2       1 <0>        -0.5009
     12 C10         2.3155   -2.4400   -5.3318 C.3       1 <0>         0.0502
     13 O2          2.9044   -1.3953   -4.5530 O.3       1 <0>        -0.2993
     14 N2          0.7778   -0.2929    1.2495 N.am      1 <0>        -0.7163
     15 C11         0.1002   -0.4967    2.3966 C.2       1 <0>         0.5119
     16 O3         -1.0932   -0.2851    2.4417 O.2       1 <0>        -0.5327
     17 C12         0.8254   -0.9874    3.6231 C.3       1 <0>         0.1155
     18 N3         -0.1252   -1.1279    4.7289 N.am      1 <0>        -0.7192
     19 C13         0.3010   -1.5561    5.9337 C.2       1 <0>         0.7115
     20 O4          1.4744   -1.8258    6.1027 O.2       1 <0>        -0.5639
     21 N4         -0.5735   -1.6854    6.9510 N.am      1 <0>        -0.6827
     22 C14        -0.1528   -2.2201    8.1686 C.ar      1 <0>         0.2654
     23 C15         1.1291   -1.9499    8.6395 C.ar      1 <0>        -0.1296
     24 C16         1.5490   -2.4750    9.8401 C.ar      1 <0>        -0.0120
     25 C17         0.6872   -3.2812   10.5887 C.ar      1 <0>        -0.2272
     26 C18        -0.6009   -3.5516   10.1137 C.ar      1 <0>         0.1828
     27 C19        -1.0164   -3.0164    8.9110 C.ar      1 <0>        -0.1847
     28 F1         -1.4381   -4.3304   10.8333 F         1 <0>        -0.1189
     29 C20         1.1348   -3.8463   11.8767 C.cat     1 <0>         0.6127
     30 N5          1.0944   -5.1637   12.0765 N.pl3     1 <0>        -0.7509
     31 N6          1.5793   -3.0394   12.8401 N.pl3     1 <0>        -0.7512
     32 H1          0.9775    2.1381    0.1239 H         1 <0>         0.0637
     33 H2         -0.5493    2.0654   -0.7882 H         1 <0>         0.0732
     34 H3         -0.5722    2.0152    0.9909 H         1 <0>         0.0667
     35 H4         -0.9295   -0.2435    0.0322 H         1 <0>         0.1016
     36 H5          2.7446    0.1540   -0.3125 H         1 <0>         0.1334
     37 H6          3.9928   -0.5337   -2.3202 H         1 <0>         0.1450
     38 H7         -0.9389   -0.7204   -2.2786 H         1 <0>         0.1375
     39 H8         -0.7931   -1.3390   -4.6708 H         1 <0>         0.4185
     40 H9          2.4386   -3.3916   -4.8146 H         1 <0>         0.1033
     41 H10         2.8071   -2.4895   -6.3034 H         1 <0>         0.1504
     42 H11         1.7322   -0.4621    1.2134 H         1 <0>         0.4055
     43 H12         1.2829   -1.9540    3.4122 H         1 <0>         0.1070
     44 H13         1.5996   -0.2713    3.8983 H         1 <0>         0.1077
     45 H14        -1.0614   -0.9128    4.5940 H         1 <0>         0.4151
     46 H15        -1.4954   -1.4066    6.8364 H         1 <0>         0.4220
     47 H16         1.7955   -1.3272    8.0611 H         1 <0>         0.1700
     48 H17         2.5440   -2.2645   10.2034 H         1 <0>         0.1549
     49 H18        -2.0118   -3.2199    8.5449 H         1 <0>         0.1622
     50 H19         1.4552   -5.5416   12.8938 H         1 <0>         0.4336
     51 H20         1.6087   -2.0808   12.6947 H         1 <0>         0.4488
     52 H21         1.8734   -3.4108   13.6865 H         1 <0>         0.4333
     53 H22         0.7043   -5.7444   11.4046 H         1 <0>         0.4479
@<TRIPOS>BOND
     1    1    2 1
     2    1   32 1
     3    1   33 1
     4    1   34 1
     5    2    3 1
     6    2   14 1
     7    2   35 1
     8    3    8 ar
     9    3    4 ar
    10    4    5 ar
    11    4   36 1
    12    5    6 ar
    13    5   37 1
    14    6   13 1
    15    6    7 ar
    16    7    8 ar
    17    7    9 1
    18    8   38 1
    19    9   10 am
    20    9   39 1
    21   10   11 2
    22   10   12 1
    23   12   13 1
    24   12   40 1
    25   12   41 1
    26   14   15 am
    27   14   42 1
    28   15   16 2
    29   15   17 1
    30   17   18 1
    31   17   43 1
    32   17   44 1
    33   18   19 am
    34   18   45 1
    35   19   20 2
    36   19   21 am
    37   21   22 1
    38   21   46 1
    39   22   27 ar
    40   22   23 ar
    41   23   24 ar
    42   23   47 1
    43   24   25 ar
    44   24   48 1
    45   25   26 ar
    46   25   29 1
    47   26   27 ar
    48   26   28 1
    49   27   49 1
    50   29   30 2
    51   29   31 1
    52   30   50 1
    53   30   53 1
    54   31   51 1
    55   31   52 1
@<TRIPOS>MOLECULE
CHEMBL332983
   62    64     0     0     0
SMALL
USER_CHARGES

@<TRIPOS>ATOM
      1 C1         -0.3413    1.5141    0.1296 C.3       1 <0>        -0.1601
      2 C2         -0.3080   -0.0149    0.0844 C.3       1 <0>         0.1903
      3 C3          0.5358   -0.5328    1.2206 C.ar      1 <0>        -0.1337
      4 C4          1.9144   -0.5281    1.1143 C.ar      1 <0>        -0.0754
      5 C5          2.6901   -1.0023    2.1542 C.ar      1 <0>        -0.1911
      6 C6          2.0848   -1.4831    3.3065 C.ar      1 <0>         0.1288
      7 C7          0.7011   -1.4862    3.4108 C.ar      1 <0>        -0.1399
      8 C8         -0.0699   -1.0064    2.3698 C.ar      1 <0>        -0.0661
      9 O1          2.8455   -1.9505    4.3308 O.3       1 <0>        -0.2516
     10 C9          4.1905   -2.0227    4.1456 C.ar      1 <0>         0.0400
     11 C10         4.9591   -0.8685    4.1841 C.ar      1 <0>        -0.0915
     12 C11         6.3254   -0.9420    3.9959 C.ar      1 <0>        -0.1375
     13 C12         6.9291   -2.1699    3.7683 C.ar      1 <0>         0.1340
     14 C13         6.1608   -3.3241    3.7298 C.ar      1 <0>        -0.1948
     15 C14         4.7952   -3.2514    3.9237 C.ar      1 <0>        -0.0770
     16 O2          8.2742   -2.2421    3.5826 O.3       1 <0>        -0.3131
     17 C15         8.8287   -3.5390    3.3532 C.3       1 <0>         0.0241
     18 N1          0.2666   -0.4533   -1.1899 N.am      1 <0>        -0.7157
     19 C16        -0.5184   -0.5670   -2.2795 C.2       1 <0>         0.5112
     20 O3         -1.7006   -0.3063   -2.2051 O.2       1 <0>        -0.5338
     21 C17         0.0726   -1.0180   -3.5903 C.3       1 <0>         0.1148
     22 N2         -0.9776   -1.0601   -4.6108 N.am      1 <0>        -0.7187
     23 C18        -0.6793   -1.4381   -5.8696 C.2       1 <0>         0.7092
     24 O4          0.4614   -1.7442   -6.1583 O.2       1 <0>        -0.5628
     25 N3         -1.6455   -1.4767   -6.8085 N.am      1 <0>        -0.6789
     26 C19        -1.3661   -1.9870   -8.0762 C.ar      1 <0>         0.2523
     27 C20        -0.3522   -2.9255   -8.2386 C.ar      1 <0>        -0.1350
     28 C21        -0.0736   -3.4308   -9.4888 C.ar      1 <0>        -0.0289
     29 C22        -0.8107   -3.0004  -10.5946 C.ar      1 <0>        -0.1913
     30 C23        -1.8285   -2.0583  -10.4281 C.ar      1 <0>        -0.0262
     31 C24        -2.1057   -1.5606   -9.1745 C.ar      1 <0>        -0.1563
     32 C25        -0.5141   -3.5402  -11.9374 C.cat     1 <0>         0.6035
     33 N4         -1.2181   -3.1287  -12.9913 N.pl3     1 <0>        -0.7671
     34 N5          0.4574   -4.4385  -12.0947 N.pl3     1 <0>        -0.7661
     35 H1          0.6728    1.9025    0.0355 H         1 <0>         0.0607
     36 H2         -0.9516    1.8887   -0.6922 H         1 <0>         0.0644
     37 H3         -0.7688    1.8403    1.0777 H         1 <0>         0.0730
     38 H4         -1.3221   -0.4033    0.1785 H         1 <0>         0.0999
     39 H5          2.3851   -0.1538    0.2172 H         1 <0>         0.1232
     40 H6          3.7669   -0.9991    2.0704 H         1 <0>         0.1326
     41 H7          0.2274   -1.8602    4.3065 H         1 <0>         0.1372
     42 H8         -1.1467   -1.0051    2.4520 H         1 <0>         0.1346
     43 H9          4.4890    0.0876    4.3609 H         1 <0>         0.1388
     44 H10         6.9237   -0.0434    4.0255 H         1 <0>         0.1409
     45 H11         6.6309   -4.2801    3.5526 H         1 <0>         0.1382
     46 H12         4.1976   -4.1507    3.8985 H         1 <0>         0.1358
     47 H13         9.9075   -3.4548    3.2214 H         1 <0>         0.1047
     48 H14         8.6162   -4.1814    4.2078 H         1 <0>         0.0591
     49 H15         8.3856   -3.9701    2.4555 H         1 <0>         0.0575
     50 H16         1.2121   -0.6618   -1.2494 H         1 <0>         0.4040
     51 H17         0.8503   -0.3190   -3.8979 H         1 <0>         0.1065
     52 H18         0.5038   -2.0121   -3.4716 H         1 <0>         0.1064
     53 H19        -1.8877   -0.8158   -4.3806 H         1 <0>         0.4150
     54 H20        -2.5352   -1.1497   -6.6026 H         1 <0>         0.4210
     55 H21         0.2174   -3.2578   -7.3833 H         1 <0>         0.1677
     56 H22         0.7141   -4.1588   -9.6144 H         1 <0>         0.1398
     57 H23        -2.4002   -1.7236  -11.2811 H         1 <0>         0.1411
     58 H24        -2.8952   -0.8352   -9.0445 H         1 <0>         0.1514
     59 H25        -1.0234   -3.4831  -13.8730 H         1 <0>         0.4320
     60 H26         0.9698   -4.7381  -11.3276 H         1 <0>         0.4436
     61 H27         0.6521   -4.7929  -12.9764 H         1 <0>         0.4320
     62 H28        -1.9253   -2.4747  -12.8768 H         1 <0>         0.4429
@<TRIPOS>BOND
     1    1    2 1
     2    1   35 1
     3    1   36 1
     4    1   37 1
     5    2    3 1
     6    2   18 1
     7    2   38 1
     8    3    8 ar
     9    3    4 ar
    10    4    5 ar
    11    4   39 1
    12    5    6 ar
    13    5   40 1
    14    6    7 ar
    15    6    9 1
    16    7    8 ar
    17    7   41 1
    18    8   42 1
    19    9   10 1
    20   10   15 ar
    21   10   11 ar
    22   11   12 ar
    23   11   43 1
    24   12   13 ar
    25   12   44 1
    26   13   14 ar
    27   13   16 1
    28   14   15 ar
    29   14   45 1
    30   15   46 1
    31   16   17 1
    32   17   47 1
    33   17   48 1
    34   17   49 1
    35   18   19 am
    36   18   50 1
    37   19   20 2
    38   19   21 1
    39   21   22 1
    40   21   51 1
    41   21   52 1
    42   22   23 am
    43   22   53 1
    44   23   24 2
    45   23   25 am
    46   25   26 1
    47   25   54 1
    48   26   31 ar
    49   26   27 ar
    50   27   28 ar
    51   27   55 1
    52   28   29 ar
    53   28   56 1
    54   29   30 ar
    55   29   32 1
    56   30   31 ar
    57   30   57 1
    58   31   58 1
    59   32   33 2
    60   32   34 1
    61   33   59 1
    62   33   62 1
    63   34   60 1
    64   34   61 1
@<TRIPOS>MOLECULE
CHEMBL332983__1
   62    64     0     0     0
SMALL
USER_CHARGES

@<TRIPOS>ATOM
      1 C1         -0.2252    1.5232   -0.0997 C.3       1 <0>        -0.1598
      2 C2         -0.2835   -0.0057   -0.0997 C.3       1 <0>         0.1903
      3 C3          0.4900   -0.5379   -1.2785 C.ar      1 <0>        -0.1337
      4 C4          1.8682   -0.6297   -1.2150 C.ar      1 <0>        -0.0755
      5 C5          2.5796   -1.1172   -2.2941 C.ar      1 <0>        -0.1911
      6 C6          1.9099   -1.5153   -3.4423 C.ar      1 <0>         0.1288
      7 C7          0.5268   -1.4226   -3.5032 C.ar      1 <0>        -0.1398
      8 C8         -0.1802   -0.9389   -2.4195 C.ar      1 <0>        -0.0661
      9 O1          2.6074   -1.9948   -4.5053 O.3       1 <0>        -0.2517
     10 C9          3.9653   -1.9732   -4.4400 C.ar      1 <0>         0.0398
     11 C10         4.6371   -2.9028   -3.6596 C.ar      1 <0>        -0.0922
     12 C11         6.0165   -2.8808   -3.5933 C.ar      1 <0>        -0.1384
     13 C12         6.7301   -1.9292   -4.3070 C.ar      1 <0>         0.1342
     14 C13         6.0585   -0.9997   -5.0873 C.ar      1 <0>        -0.1940
     15 C14         4.6793   -1.0252   -5.1582 C.ar      1 <0>        -0.0762
     16 O2          8.0881   -1.9074   -4.2413 O.3       1 <0>        -0.3135
     17 C15         8.7583   -0.9002   -5.0019 C.3       1 <0>         0.0238
     18 N1          0.3043   -0.5168    1.1410 N.am      1 <0>        -0.7158
     19 C16        -0.4505   -0.6168    2.2531 C.2       1 <0>         0.5112
     20 O3         -1.6164   -0.2837    2.2267 O.2       1 <0>        -0.5338
     21 C17         0.1542   -1.1426    3.5294 C.3       1 <0>         0.1149
     22 N2         -0.8631   -1.1531    4.5836 N.am      1 <0>        -0.7188
     23 C18        -0.5477   -1.5868    5.8201 C.2       1 <0>         0.7092
     24 O4          0.5810   -1.9694    6.0606 O.2       1 <0>        -0.5627
     25 N3         -1.4836   -1.5965    6.7899 N.am      1 <0>        -0.6789
     26 C19        -1.1287   -1.9245    8.0983 C.ar      1 <0>         0.2523
     27 C20         0.1721   -1.7057    8.5402 C.ar      1 <0>        -0.1349
     28 C21         0.5257   -2.0288    9.8312 C.ar      1 <0>        -0.0289
     29 C22        -0.4234   -2.5765   10.6974 C.ar      1 <0>        -0.1912
     30 C23        -1.7289   -2.7946   10.2508 C.ar      1 <0>        -0.0262
     31 C24        -2.0776   -2.4645    8.9603 C.ar      1 <0>        -0.1563
     32 C25        -0.0472   -2.9248   12.0830 C.cat     1 <0>         0.6034
     33 N4         -0.9537   -3.4471   12.9082 N.pl3     1 <0>        -0.7671
     34 N5          1.1986   -2.7165   12.5075 N.pl3     1 <0>        -0.7661
     35 H1          0.8131    1.8472   -0.0292 H         1 <0>         0.0604
     36 H2         -0.6626    1.9034   -1.0229 H         1 <0>         0.0728
     37 H3         -0.7847    1.9081    0.7529 H         1 <0>         0.0644
     38 H4         -1.3218   -0.3297   -0.1703 H         1 <0>         0.1000
     39 H5          2.3889   -0.3197   -0.3210 H         1 <0>         0.1230
     40 H6          3.6561   -1.1880   -2.2442 H         1 <0>         0.1327
     41 H7          0.0032   -1.7315   -4.3959 H         1 <0>         0.1372
     42 H8         -1.2570   -0.8700   -2.4650 H         1 <0>         0.1346
     43 H9          4.0815   -3.6435   -3.1037 H         1 <0>         0.1380
     44 H10         6.5395   -3.6043   -2.9855 H         1 <0>         0.1403
     45 H11         6.6142   -0.2589   -5.6429 H         1 <0>         0.1388
     46 H12         4.1566   -0.3044   -5.7696 H         1 <0>         0.1365
     47 H13         9.8350   -0.9946   -4.8608 H         1 <0>         0.1048
     48 H14         8.5181   -1.0224   -6.0580 H         1 <0>         0.0593
     49 H15         8.4329    0.0847   -4.6669 H         1 <0>         0.0582
     50 H16         1.2368   -0.7832    1.1622 H         1 <0>         0.4041
     51 H17         0.5200   -2.1565    3.3675 H         1 <0>         0.1066
     52 H18         0.9825   -0.5011    3.8302 H         1 <0>         0.1065
     53 H19        -1.7636   -0.8479    4.3917 H         1 <0>         0.4150
     54 H20        -2.4040   -1.3754    6.5780 H         1 <0>         0.4210
     55 H21         0.9055   -1.2822    7.8700 H         1 <0>         0.1678
     56 H22         1.5359   -1.8594   10.1735 H         1 <0>         0.1398
     57 H23        -2.4649   -3.2178   10.9183 H         1 <0>         0.1411
     58 H24        -3.0878   -2.6291    8.6157 H         1 <0>         0.1513
     59 H25        -0.7067   -3.6758   13.8179 H         1 <0>         0.4320
     60 H26         1.8584   -2.3363   11.9067 H         1 <0>         0.4436
     61 H27         1.4456   -2.9452   13.4172 H         1 <0>         0.4321
     62 H28        -1.8606   -3.5987   12.5992 H         1 <0>         0.4429
@<TRIPOS>BOND
     1    1    2 1
     2    1   35 1
     3    1   36 1
     4    1   37 1
     5    2    3 1
     6    2   18 1
     7    2   38 1
     8    3    8 ar
     9    3    4 ar
    10    4    5 ar
    11    4   39 1
    12    5    6 ar
    13    5   40 1
    14    6    7 ar
    15    6    9 1
    16    7    8 ar
    17    7   41 1
    18    8   42 1
    19    9   10 1
    20   10   15 ar
    21   10   11 ar
    22   11   12 ar
    23   11   43 1
    24   12   13 ar
    25   12   44 1
    26   13   14 ar
    27   13   16 1
    28   14   15 ar
    29   14   45 1
    30   15   46 1
    31   16   17 1
    32   17   47 1
    33   17   48 1
    34   17   49 1
    35   18   19 am
    36   18   50 1
    37   19   20 2
    38   19   21 1
    39   21   22 1
    40   21   51 1
    41   21   52 1
    42   22   23 am
    43   22   53 1
    44   23   24 2
    45   23   25 am
    46   25   26 1
    47   25   54 1
    48   26   31 ar
    49   26   27 ar
    50   27   28 ar
    51   27   55 1
    52   28   29 ar
    53   28   56 1
    54   29   30 ar
    55   29   32 1
    56   30   31 ar
    57   30   57 1
    58   31   58 1
    59   32   33 2
    60   32   34 1
    61   33   59 1
    62   33   62 1
    63   34   60 1
    64   34   61 1
@<TRIPOS>MOLECULE
CHEMBL224485
   60    62     0     0     0
SMALL
USER_CHARGES

@<TRIPOS>ATOM
      1 C1          0.0242    1.4793    0.0195 C.3       1 <0>        -0.1489
      2 C2          0.0385   -0.0506    0.0183 C.3       1 <0>        -0.1093
      3 C3          0.7590   -0.5529   -1.2345 C.3       1 <0>        -0.1452
      4 C4          0.7701   -0.5548    1.2639 C.3       1 <0>         0.1238
      5 N1          0.0152   -0.1753    2.4607 N.am      1 <0>        -0.7316
      6 C5          0.4725   -0.5155    3.6820 C.2       1 <0>         0.5614
      7 O1          1.5114   -1.1373    3.7905 O.2       1 <0>        -0.5373
      8 C6         -0.2890   -0.1327    4.8893 C.ar      1 <0>        -0.1509
      9 C7         -1.4872    0.5778    4.7625 C.ar      1 <0>        -0.0974
     10 C8         -2.2033    0.9386    5.8824 C.ar      1 <0>        -0.1290
     11 C9         -1.7383    0.5978    7.1513 C.ar      1 <0>        -0.0010
     12 C10        -0.5320   -0.1184    7.2877 C.ar      1 <0>        -0.0863
     13 C11         0.1850   -0.4851    6.1510 C.ar      1 <0>        -0.0280
     14 C12        -0.0343   -0.4821    8.6261 C.2       1 <0>         0.5260
     15 O2          1.0128   -1.1037    8.7412 O.co2     1 <0>        -0.6805
     16 O3         -0.6684   -0.1624    9.6221 O.co2     1 <0>        -0.6779
     17 C13        -2.5089    0.9875    8.3526 C.ar      1 <0>         0.0575
     18 C14        -3.7738    0.4496    8.5789 C.ar      1 <0>        -0.1190
     19 C15        -4.4893    0.8161    9.7014 C.ar      1 <0>        -0.0926
     20 C16        -3.9580    1.7179   10.6083 C.ar      1 <0>        -0.1316
     21 C17        -2.7062    2.2618   10.4016 C.ar      1 <0>        -0.0939
     22 C18        -1.9662    1.8995    9.2770 C.ar      1 <0>        -0.0677
     23 C19        -0.6241    2.4740    9.0538 C.2       1 <0>         0.5775
     24 O4          0.0156    2.1595    8.0690 O.2       1 <0>        -0.4810
     25 N2         -0.1085    3.3470    9.9418 N.am      1 <0>        -0.6754
     26 C20         1.1946    3.8153    9.7826 C.ar      1 <0>         0.2515
     27 C21         1.7019    4.0362    8.5060 C.ar      1 <0>        -0.1283
     28 C22         2.9888    4.4987    8.3456 C.ar      1 <0>        -0.0302
     29 C23         3.7852    4.7463    9.4661 C.ar      1 <0>        -0.1988
     30 C24         3.2731    4.5237   10.7465 C.ar      1 <0>        -0.0299
     31 C25         1.9836    4.0664   10.9008 C.ar      1 <0>        -0.1540
     32 C26         5.1666    5.2423    9.2973 C.cat     1 <0>         0.6062
     33 N3          5.9252    5.4780   10.3671 N.pl3     1 <0>        -0.7714
     34 N4          5.6539    5.4538    8.0753 N.pl3     1 <0>        -0.7694
     35 H1          1.0483    1.8523    0.0153 H         1 <0>         0.0566
     36 H2         -0.4970    1.8385   -0.8679 H         1 <0>         0.0579
     37 H3         -0.4891    1.8371    0.9121 H         1 <0>         0.0544
     38 H4         -0.9857   -0.4236    0.0226 H         1 <0>         0.0771
     39 H5          1.7832   -0.1799   -1.2388 H         1 <0>         0.0576
     40 H6          0.7692   -1.6428   -1.2354 H         1 <0>         0.0588
     41 H7          0.2378   -0.1937   -2.1219 H         1 <0>         0.0600
     42 H8          0.8583   -1.6403    1.2190 H         1 <0>         0.0675
     43 H9          1.7647   -0.1108    1.3058 H         1 <0>         0.0663
     44 H10        -0.8138    0.3209    2.3742 H         1 <0>         0.3982
     45 H11        -1.8524    0.8450    3.7819 H         1 <0>         0.1163
     46 H12        -3.1275    1.4875    5.7770 H         1 <0>         0.1215
     47 H13         1.1079   -1.0376    6.2478 H         1 <0>         0.1371
     48 H14        -4.1950   -0.2540    7.8760 H         1 <0>         0.1257
     49 H15        -5.4698    0.3972    9.8731 H         1 <0>         0.1244
     50 H16        -4.5269    1.9976   11.4827 H         1 <0>         0.1234
     51 H17        -2.2986    2.9647   11.1130 H         1 <0>         0.1153
     52 H18        -0.6444    3.6494   10.6917 H         1 <0>         0.4162
     53 H19         1.0857    3.8442    7.6400 H         1 <0>         0.1623
     54 H20         3.3821    4.6696    7.3544 H         1 <0>         0.1362
     55 H21         3.8867    4.7139   11.6147 H         1 <0>         0.1370
     56 H22         1.5856    3.8983   11.8906 H         1 <0>         0.1495
     57 H23         5.5705    5.3240   11.2567 H         1 <0>         0.4423
     58 H24         5.1017    5.2822    7.2965 H         1 <0>         0.4436
     59 H25         6.5609    5.7794    7.9645 H         1 <0>         0.4288
     60 H26         6.8322    5.8036   10.2563 H         1 <0>         0.4286
@<TRIPOS>BOND
     1    1    2 1
     2    1   35 1
     3    1   36 1
     4    1   37 1
     5    2    3 1
     6    2    4 1
     7    2   38 1
     8    3   39 1
     9    3   40 1
    10    3   41 1
    11    4    5 1
    12    4   42 1
    13    4   43 1
    14    5    6 am
    15    5   44 1
    16    6    7 2
    17    6    8 1
    18    8   13 ar
    19    8    9 ar
    20    9   10 ar
    21    9   45 1
    22   10   11 ar
    23   10   46 1
    24   11   12 ar
    25   11   17 1
    26   12   13 ar
    27   12   14 1
    28   13   47 1
    29   14   15 2
    30   14   16 1
    31   17   22 ar
    32   17   18 ar
    33   18   19 ar
    34   18   48 1
    35   19   20 ar
    36   19   49 1
    37   20   21 ar
    38   20   50 1
    39   21   22 ar
    40   21   51 1
    41   22   23 1
    42   23   24 2
    43   23   25 am
    44   25   26 1
    45   25   52 1
    46   26   31 ar
    47   26   27 ar
    48   27   28 ar
    49   27   53 1
    50   28   29 ar
    51   28   54 1
    52   29   30 ar
    53   29   32 1
    54   30   31 ar
    55   30   55 1
    56   31   56 1
    57   32   33 2
    58   32   34 1
    59   33   57 1
    60   33   60 1
    61   34   58 1
    62   34   59 1
@<TRIPOS>MOLECULE
CHEMBL421426
   72    75     0     0     0
SMALL
USER_CHARGES

@<TRIPOS>ATOM
      1 C1          1.8125    0.8800   -1.5831 C.3       1 <0>        -0.1613
      2 C2          1.5162   -0.6115   -1.4144 C.3       1 <0>         0.1821
      3 C3          1.8354   -1.0304   -0.0024 C.ar      1 <0>        -0.0678
      4 C4          3.1467   -1.2782    0.3627 C.ar      1 <0>        -0.1214
      5 C5          3.4457   -1.6625    1.6535 C.ar      1 <0>        -0.0482
      6 C6          2.4218   -1.8008    2.5921 C.ar      1 <0>        -0.1326
      7 C7          1.1010   -1.5488    2.2172 C.ar      1 <0>        -0.0780
      8 C8          0.8163   -1.1602    0.9245 C.ar      1 <0>        -0.1106
      9 C9          2.7347   -2.2126    3.9768 C.2       1 <0>         0.5589
     10 O1          3.8859   -2.4317    4.3003 O.2       1 <0>        -0.5054
     11 N1          1.7438   -2.3453    4.8806 N.am      1 <0>        -0.6625
     12 C10         2.0154   -2.8849    6.1418 C.ar      1 <0>         0.1571
     13 C11         0.9918   -3.4525    6.8908 C.ar      1 <0>        -0.1494
     14 C12         1.2602   -3.9859    8.1362 C.ar      1 <0>        -0.0808
     15 C13         2.5464   -3.9565    8.6411 C.ar      1 <0>        -0.1396
     16 C14         3.5729   -3.3909    7.8976 C.ar      1 <0>         0.1058
     17 C15         3.3086   -2.8595    6.6446 C.ar      1 <0>        -0.1576
     18 O2          4.8370   -3.3626    8.3952 O.3       1 <0>        -0.2572
     19 C16         5.2855   -2.1975    8.9317 C.ar      1 <0>         0.1229
     20 C17         4.4855   -1.0642    8.8995 C.ar      1 <0>        -0.1942
     21 C18         4.9438    0.1190    9.4456 C.ar      1 <0>        -0.0826
     22 C19         6.1987    0.1748   10.0235 C.ar      1 <0>        -0.1525
     23 C20         6.9981   -0.9530   10.0565 C.ar      1 <0>        -0.0820
     24 C21         6.5419   -2.1404    9.5178 C.ar      1 <0>        -0.1455
     25 N2          2.3392   -1.3818   -2.3502 N.am      1 <0>        -0.7175
     26 C22         1.9194   -1.5737   -3.6164 C.2       1 <0>         0.5128
     27 O3          0.8603   -1.1087   -3.9812 O.2       1 <0>        -0.5322
     28 C23         2.7659   -2.3660   -4.5790 C.3       1 <0>         0.1151
     29 N3          2.0955   -2.4306   -5.8800 N.am      1 <0>        -0.7199
     30 C24         2.6714   -3.0930   -6.9027 C.2       1 <0>         0.7094
     31 O4          3.7473   -3.6370   -6.7456 O.2       1 <0>        -0.5625
     32 N4          2.0546   -3.1524   -8.0996 N.am      1 <0>        -0.6832
     33 C25         2.5532   -3.9861   -9.1005 C.ar      1 <0>         0.2520
     34 C26         3.1783   -5.1815   -8.7606 C.ar      1 <0>        -0.1275
     35 C27         3.6719   -6.0065   -9.7464 C.ar      1 <0>        -0.0295
     36 C28         3.5441   -5.6422  -11.0888 C.ar      1 <0>        -0.1878
     37 C29         2.9155   -4.4414  -11.4269 C.ar      1 <0>        -0.0275
     38 C30         2.4193   -3.6232  -10.4368 C.ar      1 <0>        -0.1521
     39 C31         4.0730   -6.5248  -12.1489 C.cat     1 <0>         0.6034
     40 N5          3.9504   -6.1759  -13.4290 N.pl3     1 <0>        -0.7664
     41 N6          4.6728   -7.6697  -11.8248 N.pl3     1 <0>        -0.7655
     42 H1          2.8667    1.0665   -1.3783 H         1 <0>         0.0634
     43 H2          1.5817    1.1831   -2.6044 H         1 <0>         0.0682
     44 H3          1.2002    1.4531   -0.8869 H         1 <0>         0.0741
     45 H4          0.4620   -0.7979   -1.6192 H         1 <0>         0.1042
     46 H5          3.9380   -1.1708   -0.3645 H         1 <0>         0.1310
     47 H6          4.4697   -1.8562    1.9371 H         1 <0>         0.1425
     48 H7          0.3042   -1.6540    2.9386 H         1 <0>         0.1307
     49 H8         -0.2046   -0.9607    0.6343 H         1 <0>         0.1359
     50 H9          0.8423   -2.0664    4.6563 H         1 <0>         0.4136
     51 H10        -0.0143   -3.4762    6.4989 H         1 <0>         0.1321
     52 H11         0.4633   -4.4266    8.7169 H         1 <0>         0.1382
     53 H12         2.7530   -4.3738    9.6156 H         1 <0>         0.1343
     54 H13         4.1069   -2.4230    6.0626 H         1 <0>         0.1717
     55 H14         3.5055   -1.1070    8.4476 H         1 <0>         0.1264
     56 H15         4.3215    1.0014    9.4208 H         1 <0>         0.1253
     57 H16         6.5553    1.1009   10.4496 H         1 <0>         0.1258
     58 H17         7.9780   -0.9067   10.5082 H         1 <0>         0.1321
     59 H18         7.1647   -3.0222    9.5481 H         1 <0>         0.1329
     60 H19         3.1862   -1.7537   -2.0584 H         1 <0>         0.4057
     61 H20         3.7357   -1.8817   -4.6936 H         1 <0>         0.1072
     62 H21         2.9073   -3.3754   -4.1926 H         1 <0>         0.1070
     63 H22         1.2371   -1.9965   -6.0053 H         1 <0>         0.4148
     64 H23         1.2639   -2.6153   -8.2650 H         1 <0>         0.4208
     65 H24         3.2768   -5.4626   -7.7225 H         1 <0>         0.1584
     66 H25         4.1577   -6.9340   -9.4819 H         1 <0>         0.1404
     67 H26         2.8151   -4.1570  -12.4639 H         1 <0>         0.1415
     68 H27         1.9296   -2.6966  -10.6977 H         1 <0>         0.1518
     69 H28         3.5138   -5.3425  -13.6649 H         1 <0>         0.4430
     70 H29         4.7621   -7.9236  -10.8929 H         1 <0>         0.4437
     71 H30         5.0201   -8.2492  -12.5209 H         1 <0>         0.4324
     72 H31         4.2977   -6.7554  -14.1251 H         1 <0>         0.4323
@<TRIPOS>BOND
     1    1    2 1
     2    1   42 1
     3    1   43 1
     4    1   44 1
     5    2    3 1
     6    2   25 1
     7    2   45 1
     8    3    8 ar
     9    3    4 ar
    10    4    5 ar
    11    4   46 1
    12    5    6 ar
    13    5   47 1
    14    6    7 ar
    15    6    9 1
    16    7    8 ar
    17    7   48 1
    18    8   49 1
    19    9   10 2
    20    9   11 am
    21   11   12 1
    22   11   50 1
    23   12   17 ar
    24   12   13 ar
    25   13   14 ar
    26   13   51 1
    27   14   15 ar
    28   14   52 1
    29   15   16 ar
    30   15   53 1
    31   16   17 ar
    32   16   18 1
    33   17   54 1
    34   18   19 1
    35   19   24 ar
    36   19   20 ar
    37   20   21 ar
    38   20   55 1
    39   21   22 ar
    40   21   56 1
    41   22   23 ar
    42   22   57 1
    43   23   24 ar
    44   23   58 1
    45   24   59 1
    46   25   26 am
    47   25   60 1
    48   26   27 2
    49   26   28 1
    50   28   29 1
    51   28   61 1
    52   28   62 1
    53   29   30 am
    54   29   63 1
    55   30   31 2
    56   30   32 am
    57   32   33 1
    58   32   64 1
    59   33   38 ar
    60   33   34 ar
    61   34   35 ar
    62   34   65 1
    63   35   36 ar
    64   35   66 1
    65   36   37 ar
    66   36   39 1
    67   37   38 ar
    68   37   67 1
    69   38   68 1
    70   39   40 2
    71   39   41 1
    72   40   69 1
    73   40   72 1
    74   41   70 1
    75   41   71 1
@<TRIPOS>MOLECULE
CHEMBL421426__1
   72    75     0     0     0
SMALL
USER_CHARGES

@<TRIPOS>ATOM
      1 C1          1.4023    2.8219    0.0077 C.3       1 <0>        -0.1611
      2 C2          1.8426    1.3627    0.1409 C.3       1 <0>         0.1821
      3 C3          2.1343    0.7993   -1.2260 C.ar      1 <0>        -0.0678
      4 C4          3.3457    1.0688   -1.8379 C.ar      1 <0>        -0.1214
      5 C5          3.6189    0.5565   -3.0893 C.ar      1 <0>        -0.0481
      6 C6          2.6701   -0.2357   -3.7381 C.ar      1 <0>        -0.1326
      7 C7          1.4502   -0.5040   -3.1150 C.ar      1 <0>        -0.0779
      8 C8          1.1918    0.0102   -1.8612 C.ar      1 <0>        -0.1107
      9 C9          2.9559   -0.7875   -5.0793 C.2       1 <0>         0.5590
     10 O1          4.0190   -0.5518   -5.6196 O.2       1 <0>        -0.5054
     11 N1          2.0377   -1.5520   -5.7030 N.am      1 <0>        -0.6625
     12 C10         2.2387   -1.9428   -7.0306 C.ar      1 <0>         0.1570
     13 C11         1.1550   -2.3081   -7.8199 C.ar      1 <0>        -0.1491
     14 C12         1.3534   -2.6936   -9.1313 C.ar      1 <0>        -0.0807
     15 C13         2.6294   -2.7178   -9.6618 C.ar      1 <0>        -0.1394
     16 C14         3.7157   -2.3541   -8.8783 C.ar      1 <0>         0.1054
     17 C15         3.5200   -1.9609   -7.5632 C.ar      1 <0>        -0.1576
     18 O2          4.9696   -2.3783   -9.4012 O.3       1 <0>        -0.2568
     19 C16         5.7674   -3.4354   -9.0970 C.ar      1 <0>         0.1236
     20 C17         5.3199   -4.4145   -8.2215 C.ar      1 <0>        -0.1944
     21 C18         6.1328   -5.4882   -7.9139 C.ar      1 <0>        -0.0830
     22 C19         7.3917   -5.5874   -8.4773 C.ar      1 <0>        -0.1531
     23 C20         7.8402   -4.6129   -9.3496 C.ar      1 <0>        -0.0820
     24 C21         7.0286   -3.5407   -9.6657 C.ar      1 <0>        -0.1454
     25 N2          3.0505    1.2906    0.9668 N.am      1 <0>        -0.7176
     26 C22         2.9469    1.2469    2.3098 C.2       1 <0>         0.5128
     27 O3          1.8538    1.2674    2.8347 O.2       1 <0>        -0.5321
     28 C23         4.1894    1.1727    3.1594 C.3       1 <0>         0.1151
     29 N3          3.8120    1.1363    4.5744 N.am      1 <0>        -0.7199
     30 C24         4.7654    1.0688    5.5247 C.2       1 <0>         0.7093
     31 O4          5.9387    1.0382    5.2075 O.2       1 <0>        -0.5625
     32 N4          4.4182    1.0353    6.8265 N.am      1 <0>        -0.6831
     33 C25         5.3976    1.1518    7.8127 C.ar      1 <0>         0.2520
     34 C26         6.5280    1.9286    7.5801 C.ar      1 <0>        -0.1275
     35 C27         7.4968    2.0452    8.5515 C.ar      1 <0>        -0.0295
     36 C28         7.3436    1.3828    9.7717 C.ar      1 <0>        -0.1878
     37 C29         6.2072    0.6039   10.0024 C.ar      1 <0>        -0.0274
     38 C30         5.2394    0.4955    9.0290 C.ar      1 <0>        -0.1522
     39 C31         8.3814    1.5053   10.8160 C.cat     1 <0>         0.6035
     40 N5          8.2338    0.8729   11.9795 N.pl3     1 <0>        -0.7664
     41 N6          9.4651    2.2484   10.5943 N.pl3     1 <0>        -0.7656
     42 H1          2.1982    3.4003   -0.4614 H         1 <0>         0.0634
     43 H2          0.5036    2.8756   -0.6067 H         1 <0>         0.0741
     44 H3          1.1913    3.2295    0.9964 H         1 <0>         0.0682
     45 H4          1.0467    0.7844    0.6100 H         1 <0>         0.1043
     46 H5          4.0788    1.6818   -1.3348 H         1 <0>         0.1308
     47 H6          4.5645    0.7681   -3.5661 H         1 <0>         0.1425
     48 H7          0.7119   -1.1162   -3.6115 H         1 <0>         0.1308
     49 H8          0.2501   -0.2002   -1.3761 H         1 <0>         0.1359
     50 H9          1.2376   -1.8311   -5.2311 H         1 <0>         0.4136
     51 H10         0.1569   -2.2908   -7.4076 H         1 <0>         0.1324
     52 H11         0.5099   -2.9772   -9.7432 H         1 <0>         0.1384
     53 H12         2.7814   -3.0204  -10.6873 H         1 <0>         0.1343
     54 H13         4.3635   -1.6733   -6.9532 H         1 <0>         0.1715
     55 H14         4.3370   -4.3371   -7.7807 H         1 <0>         0.1265
     56 H15         5.7850   -6.2505   -7.2326 H         1 <0>         0.1248
     57 H16         8.0258   -6.4275   -8.2352 H         1 <0>         0.1254
     58 H17         8.8240   -4.6926   -9.7880 H         1 <0>         0.1320
     59 H18         7.3776   -2.7822  -10.3509 H         1 <0>         0.1331
     60 H19         3.9248    1.2742    0.5470 H         1 <0>         0.4056
     61 H20         4.7475    0.2706    2.9088 H         1 <0>         0.1069
     62 H21         4.8109    2.0483    2.9715 H         1 <0>         0.1072
     63 H22         2.8759    1.1607    4.8275 H         1 <0>         0.4148
     64 H23         3.4872    0.9302    7.0776 H         1 <0>         0.4207
     65 H24         6.6459    2.4405    6.6365 H         1 <0>         0.1584
     66 H25         8.3745    2.6478    8.3701 H         1 <0>         0.1404
     67 H26         6.0859    0.0906   10.9449 H         1 <0>         0.1415
     68 H27         4.3587   -0.1033    9.2083 H         1 <0>         0.1517
     69 H28         7.4450    0.3320   12.1409 H         1 <0>         0.4430
     70 H29         9.5725    2.7088    9.7473 H         1 <0>         0.4437
     71 H30        10.1465    2.3288   11.2799 H         1 <0>         0.4324
     72 H31         8.9153    0.9533   12.6651 H         1 <0>         0.4324
@<TRIPOS>BOND
     1    1    2 1
     2    1   42 1
     3    1   43 1
     4    1   44 1
     5    2    3 1
     6    2   25 1
     7    2   45 1
     8    3    8 ar
     9    3    4 ar
    10    4    5 ar
    11    4   46 1
    12    5    6 ar
    13    5   47 1
    14    6    7 ar
    15    6    9 1
    16    7    8 ar
    17    7   48 1
    18    8   49 1
    19    9   10 2
    20    9   11 am
    21   11   12 1
    22   11   50 1
    23   12   17 ar
    24   12   13 ar
    25   13   14 ar
    26   13   51 1
    27   14   15 ar
    28   14   52 1
    29   15   16 ar
    30   15   53 1
    31   16   17 ar
    32   16   18 1
    33   17   54 1
    34   18   19 1
    35   19   24 ar
    36   19   20 ar
    37   20   21 ar
    38   20   55 1
    39   21   22 ar
    40   21   56 1
    41   22   23 ar
    42   22   57 1
    43   23   24 ar
    44   23   58 1
    45   24   59 1
    46   25   26 am
    47   25   60 1
    48   26   27 2
    49   26   28 1
    50   28   29 1
    51   28   61 1
    52   28   62 1
    53   29   30 am
    54   29   63 1
    55   30   31 2
    56   30   32 am
    57   32   33 1
    58   32   64 1
    59   33   38 ar
    60   33   34 ar
    61   34   35 ar
    62   34   65 1
    63   35   36 ar
    64   35   66 1
    65   36   37 ar
    66   36   39 1
    67   37   38 ar
    68   37   67 1
    69   38   68 1
    70   39   40 2
    71   39   41 1
    72   40   69 1
    73   40   72 1
    74   41   70 1
    75   41   71 1
@<TRIPOS>MOLECULE
CHEMBL360313
   64    66     0     0     0
SMALL
USER_CHARGES

@<TRIPOS>ATOM
      1 C1         -0.0187    1.5258    0.0104 C.3       1 <0>        -0.1541
      2 C2          0.0021   -0.0041    0.0020 C.3       1 <0>         0.0519
      3 O1         -1.3386   -0.4987    0.0122 O.3       1 <0>        -0.2992
      4 C3         -1.4984   -1.8492    0.0064 C.ar      1 <0>         0.1228
      5 C4         -0.3893   -2.6797   -0.0028 C.ar      1 <0>        -0.1673
      6 C5         -0.5535   -4.0523   -0.0082 C.ar      1 <0>        -0.0991
      7 C6         -1.8231   -4.5996   -0.0047 C.ar      1 <0>        -0.1115
      8 C7         -2.9339   -3.7768    0.0040 C.ar      1 <0>        -0.1599
      9 C8         -2.7762   -2.4001    0.0157 C.ar      1 <0>         0.1147
     10 O2         -3.8679   -1.5893    0.0304 O.3       1 <0>        -0.2980
     11 C9         -5.1479   -2.2246    0.0392 C.3       1 <0>         0.0531
     12 C10        -6.2459   -1.1592    0.0553 C.3       1 <0>        -0.1548
     13 C11        -1.9964   -6.0966   -0.0111 C.3       1 <0>         0.1761
     14 C12        -1.8025   -6.6307    1.3847 C.2       1 <0>         0.4998
     15 O3         -0.9233   -7.4354    1.6094 O.2       1 <0>        -0.5204
     16 N1         -2.6060   -6.2141    2.3833 N.am      1 <0>        -0.7159
     17 C13        -2.4174   -6.7333    3.7402 C.3       1 <0>         0.1634
     18 C14        -3.4365   -6.1135    4.6613 C.ar      1 <0>        -0.1180
     19 C15        -3.1473   -4.9311    5.3165 C.ar      1 <0>        -0.0985
     20 C16        -4.0820   -4.3626    6.1614 C.ar      1 <0>        -0.1186
     21 C17        -5.3061   -4.9762    6.3509 C.ar      1 <0>        -0.1062
     22 C18        -5.5957   -6.1581    5.6950 C.ar      1 <0>        -0.1207
     23 C19        -4.6626   -6.7244    4.8467 C.ar      1 <0>        -0.1015
     24 N2         -1.0058   -6.6991   -0.9065 N.pl3     1 <0>        -0.6882
     25 C20        -1.2566   -7.9373   -1.4889 C.ar      1 <0>         0.2982
     26 C21        -2.4518   -8.5999   -1.2244 C.ar      1 <0>        -0.1991
     27 C22        -2.7029   -9.8250   -1.7995 C.ar      1 <0>        -0.0003
     28 C23        -1.7567  -10.4033   -2.6496 C.ar      1 <0>        -0.2303
     29 C24        -0.5579   -9.7358   -2.9132 C.ar      1 <0>        -0.0022
     30 C25        -0.3145   -8.5085   -2.3394 C.ar      1 <0>        -0.1908
     31 C26        -2.0230  -11.7177   -3.2678 C.cat     1 <0>         0.6038
     32 N3         -1.1196  -12.2682   -4.0784 N.pl3     1 <0>        -0.7727
     33 N4         -3.1668  -12.3535   -3.0151 N.pl3     1 <0>        -0.7734
     34 H1          1.0039    1.9031    0.0027 H         1 <0>         0.0820
     35 H2         -0.5459    1.8868   -0.8726 H         1 <0>         0.0686
     36 H3         -0.5289    1.8773    0.9072 H         1 <0>         0.0687
     37 H4          0.5123   -0.3556   -0.8948 H         1 <0>         0.0640
     38 H5          0.5293   -0.3651    0.8851 H         1 <0>         0.0642
     39 H6          0.6036   -2.2546   -0.0062 H         1 <0>         0.1423
     40 H7          0.3118   -4.6985   -0.0154 H         1 <0>         0.1266
     41 H8         -3.9246   -4.2069    0.0063 H         1 <0>         0.1390
     42 H9         -5.2534   -2.8416   -0.8531 H         1 <0>         0.0619
     43 H10        -5.2364   -2.8511    0.9267 H         1 <0>         0.0620
     44 H11        -6.1404   -0.5422    0.9476 H         1 <0>         0.0692
     45 H12        -6.1573   -0.5327   -0.8322 H         1 <0>         0.0689
     46 H13        -7.2222   -1.6438    0.0620 H         1 <0>         0.0810
     47 H14        -2.9992   -6.3448   -0.3590 H         1 <0>         0.1197
     48 H15        -3.3091   -5.5705    2.2037 H         1 <0>         0.4030
     49 H16        -2.5428   -7.8160    3.7356 H         1 <0>         0.0791
     50 H17        -1.4147   -6.4851    4.0881 H         1 <0>         0.0793
     51 H18        -2.1909   -4.4517    5.1685 H         1 <0>         0.1233
     52 H19        -3.8558   -3.4392    6.6739 H         1 <0>         0.1267
     53 H20        -6.0362   -4.5324    7.0115 H         1 <0>         0.1265
     54 H21        -6.5519   -6.6377    5.8432 H         1 <0>         0.1262
     55 H22        -4.8902   -7.6458    4.3314 H         1 <0>         0.1224
     56 H23        -0.1749   -6.2347   -1.0933 H         1 <0>         0.4168
     57 H24        -3.1826   -8.1526   -0.5670 H         1 <0>         0.1376
     58 H25        -3.6302  -10.3388   -1.5937 H         1 <0>         0.1344
     59 H26         0.1754  -10.1806   -3.5696 H         1 <0>         0.1360
     60 H27         0.6100   -7.9901   -2.5464 H         1 <0>         0.1454
     61 H28        -1.2945  -13.1315   -4.4845 H         1 <0>         0.4298
     62 H29        -3.8243  -11.9529   -2.4251 H         1 <0>         0.4411
     63 H30        -3.3417  -13.2169   -3.4211 H         1 <0>         0.4298
     64 H31        -0.2872  -11.8054   -4.2623 H         1 <0>         0.4416
@<TRIPOS>BOND
     1    1    2 1
     2    1   34 1
     3    1   35 1
     4    1   36 1
     5    2    3 1
     6    2   37 1
     7    2   38 1
     8    3    4 1
     9    4    9 ar
    10    4    5 ar
    11    5    6 ar
    12    5   39 1
    13    6    7 ar
    14    6   40 1
    15    7    8 ar
    16    7   13 1
    17    8    9 ar
    18    8   41 1
    19    9   10 1
    20   10   11 1
    21   11   12 1
    22   11   42 1
    23   11   43 1
    24   12   44 1
    25   12   45 1
    26   12   46 1
    27   13   14 1
    28   13   24 1
    29   13   47 1
    30   14   15 2
    31   14   16 am
    32   16   17 1
    33   16   48 1
    34   17   18 1
    35   17   49 1
    36   17   50 1
    37   18   23 ar
    38   18   19 ar
    39   19   20 ar
    40   19   51 1
    41   20   21 ar
    42   20   52 1
    43   21   22 ar
    44   21   53 1
    45   22   23 ar
    46   22   54 1
    47   23   55 1
    48   24   25 1
    49   24   56 1
    50   25   30 ar
    51   25   26 ar
    52   26   27 ar
    53   26   57 1
    54   27   28 ar
    55   27   58 1
    56   28   29 ar
    57   28   31 1
    58   29   30 ar
    59   29   59 1
    60   30   60 1
    61   31   32 2
    62   31   33 1
    63   32   61 1
    64   32   64 1
    65   33   62 1
    66   33   63 1
@<TRIPOS>MOLECULE
CHEMBL360313__1
   64    66     0     0     0
SMALL
USER_CHARGES

@<TRIPOS>ATOM
      1 C1         -0.0187    1.5258    0.0104 C.3       1 <0>        -0.1541
      2 C2          0.0021   -0.0041    0.0020 C.3       1 <0>         0.0519
      3 O1         -1.3386   -0.4987    0.0122 O.3       1 <0>        -0.2992
      4 C3         -1.4984   -1.8492    0.0064 C.ar      1 <0>         0.1228
      5 C4         -0.3893   -2.6797   -0.0028 C.ar      1 <0>        -0.1674
      6 C5         -0.5535   -4.0523   -0.0082 C.ar      1 <0>        -0.0991
      7 C6         -1.8231   -4.5996   -0.0047 C.ar      1 <0>        -0.1115
      8 C7         -2.9339   -3.7768    0.0040 C.ar      1 <0>        -0.1600
      9 C8         -2.7762   -2.4001    0.0157 C.ar      1 <0>         0.1147
     10 O2         -3.8679   -1.5893    0.0304 O.3       1 <0>        -0.2980
     11 C9         -5.1479   -2.2246    0.0392 C.3       1 <0>         0.0531
     12 C10        -6.2459   -1.1592    0.0553 C.3       1 <0>        -0.1548
     13 C11        -1.9964   -6.0966   -0.0111 C.3       1 <0>         0.1761
     14 C12        -1.8158   -6.6173   -1.4137 C.2       1 <0>         0.4997
     15 O3         -0.9388   -7.4197   -1.6544 O.2       1 <0>        -0.5204
     16 N1         -2.6288   -6.1912   -2.4006 N.am      1 <0>        -0.7159
     17 C13        -2.4532   -6.6974   -3.7641 C.3       1 <0>         0.1634
     18 C14        -3.4809   -6.0688   -4.6695 C.ar      1 <0>        -0.1180
     19 C15        -4.7108   -6.6750   -4.8446 C.ar      1 <0>        -0.1015
     20 C16        -5.6536   -6.0985   -5.6751 C.ar      1 <0>        -0.1207
     21 C17        -5.3665   -4.9155   -6.3302 C.ar      1 <0>        -0.1062
     22 C18        -4.1369   -4.3088   -6.1543 C.ar      1 <0>        -0.1186
     23 C19        -3.1958   -4.8831   -5.3205 C.ar      1 <0>        -0.0985
     24 N2         -0.9973   -6.7076    0.8691 N.pl3     1 <0>        -0.6882
     25 C20        -1.2427   -7.9513    1.4419 C.ar      1 <0>         0.2980
     26 C21        -2.4354   -8.6166    1.1733 C.ar      1 <0>        -0.1989
     27 C22        -2.6807   -9.8476    1.7384 C.ar      1 <0>        -0.0004
     28 C23        -1.7310  -10.4291    2.5822 C.ar      1 <0>        -0.2301
     29 C24        -0.5346   -9.7589    2.8500 C.ar      1 <0>        -0.0024
     30 C25        -0.2925   -8.5306    2.2780 C.ar      1 <0>        -0.1906
     31 C26        -1.9915  -11.7494    3.1903 C.cat     1 <0>         0.6038
     32 N3         -1.0848  -12.3030    3.9951 N.pl3     1 <0>        -0.7727
     33 N4         -3.1333  -12.3874    2.9344 N.pl3     1 <0>        -0.7734
     34 H1          1.0039    1.9031    0.0027 H         1 <0>         0.0820
     35 H2         -0.5459    1.8868   -0.8726 H         1 <0>         0.0687
     36 H3         -0.5289    1.8773    0.9072 H         1 <0>         0.0686
     37 H4          0.5123   -0.3556   -0.8948 H         1 <0>         0.0642
     38 H5          0.5293   -0.3651    0.8851 H         1 <0>         0.0640
     39 H6          0.6036   -2.2546   -0.0062 H         1 <0>         0.1423
     40 H7          0.3118   -4.6985   -0.0154 H         1 <0>         0.1266
     41 H8         -3.9246   -4.2069    0.0063 H         1 <0>         0.1390
     42 H9         -5.2534   -2.8416   -0.8531 H         1 <0>         0.0619
     43 H10        -5.2364   -2.8511    0.9267 H         1 <0>         0.0619
     44 H11        -6.1404   -0.5422    0.9476 H         1 <0>         0.0689
     45 H12        -6.1573   -0.5327   -0.8322 H         1 <0>         0.0692
     46 H13        -7.2222   -1.6438    0.0620 H         1 <0>         0.0810
     47 H14        -2.9958   -6.3482    0.3440 H         1 <0>         0.1197
     48 H15        -3.3301   -5.5494   -2.2081 H         1 <0>         0.4030
     49 H16        -1.4538   -6.4458   -4.1192 H         1 <0>         0.0792
     50 H17        -2.5785   -7.7801   -3.7687 H         1 <0>         0.0791
     51 H18        -4.9351   -7.5993   -4.3329 H         1 <0>         0.1224
     52 H19        -6.6142   -6.5725   -5.8125 H         1 <0>         0.1262
     53 H20        -6.1028   -4.4654   -6.9796 H         1 <0>         0.1265
     54 H21        -3.9126   -3.3848   -6.6664 H         1 <0>         0.1267
     55 H22        -2.2365   -4.4072   -5.1802 H         1 <0>         0.1233
     56 H23        -0.1647   -6.2450    1.0524 H         1 <0>         0.4168
     57 H24        -3.1693   -8.1665    0.5213 H         1 <0>         0.1375
     58 H25        -3.6065  -10.3632    1.5299 H         1 <0>         0.1344
     59 H26         0.2010  -10.2059    3.5022 H         1 <0>         0.1360
     60 H27         0.6340   -8.0141    2.4810 H         1 <0>         0.1454
     61 H28        -1.2558  -13.1703    4.3945 H         1 <0>         0.4298
     62 H29        -3.7933  -11.9845    2.3487 H         1 <0>         0.4411
     63 H30        -3.3044  -13.2547    3.3338 H         1 <0>         0.4298
     64 H31        -0.2537  -11.8387    4.1814 H         1 <0>         0.4416
@<TRIPOS>BOND
     1    1    2 1
     2    1   34 1
     3    1   35 1
     4    1   36 1
     5    2    3 1
     6    2   37 1
     7    2   38 1
     8    3    4 1
     9    4    9 ar
    10    4    5 ar
    11    5    6 ar
    12    5   39 1
    13    6    7 ar
    14    6   40 1
    15    7    8 ar
    16    7   13 1
    17    8    9 ar
    18    8   41 1
    19    9   10 1
    20   10   11 1
    21   11   12 1
    22   11   42 1
    23   11   43 1
    24   12   44 1
    25   12   45 1
    26   12   46 1
    27   13   14 1
    28   13   24 1
    29   13   47 1
    30   14   15 2
    31   14   16 am
    32   16   17 1
    33   16   48 1
    34   17   18 1
    35   17   49 1
    36   17   50 1
    37   18   23 ar
    38   18   19 ar
    39   19   20 ar
    40   19   51 1
    41   20   21 ar
    42   20   52 1
    43   21   22 ar
    44   21   53 1
    45   22   23 ar
    46   22   54 1
    47   23   55 1
    48   24   25 1
    49   24   56 1
    50   25   30 ar
    51   25   26 ar
    52   26   27 ar
    53   26   57 1
    54   27   28 ar
    55   27   58 1
    56   28   29 ar
    57   28   31 1
    58   29   30 ar
    59   29   59 1
    60   30   60 1
    61   31   32 2
    62   31   33 1
    63   32   61 1
    64   32   64 1
    65   33   62 1
    66   33   63 1
@<TRIPOS>MOLECULE
CHEMBL76325
   50    53     0     0     0
SMALL
USER_CHARGES

@<TRIPOS>ATOM
      1 C1         -0.0167    1.3788    0.0096 C.ar      1 <0>        -0.1153
      2 C2          1.1677    2.0877    0.0021 C.ar      1 <0>        -0.0558
      3 C3          2.3837    1.4075   -0.0132 C.ar      1 <0>        -0.0237
      4 C4          2.3966    0.0137   -0.0208 C.ar      1 <0>        -0.0425
      5 C5          1.2065   -0.6847   -0.0132 C.ar      1 <0>        -0.0426
      6 C6          0.0021   -0.0041    0.0020 C.ar      1 <0>        -0.0589
      7 N1          1.2185   -2.1648   -0.0213 N.pl3     1 <0>         0.0308
      8 O1          2.2703   -2.7607   -0.0345 O.2       1 <0>        -0.1483
      9 O2          0.1765   -2.7778   -0.0146 O.3       1 <0>        -0.1593
     10 C7          3.6597    2.1638   -0.0218 C.ar      1 <0>        -0.0785
     11 C8          4.6671    1.8446    0.8869 C.ar      1 <0>        -0.0618
     12 C9          5.8567    2.5467    0.8812 C.ar      1 <0>        -0.0120
     13 C10         6.0596    3.5701   -0.0234 C.ar      1 <0>        -0.0559
     14 C11         5.0621    3.9033   -0.9402 C.ar      1 <0>        -0.0834
     15 C12         3.8568    3.1932   -0.9439 C.ar      1 <0>         0.1153
     16 O3          2.8825    3.5065   -1.8361 O.3       1 <0>        -0.4930
     17 C13         5.2804    4.9991   -1.9082 C.2       1 <0>         0.1682
     18 C14         5.9025    6.1724   -1.6337 C.2       1 <0>        -0.1803
     19 C15         5.8975    6.9548   -2.8696 C.ar      1 <0>        -0.1124
     20 C16         6.3778    8.2182   -3.2132 C.ar      1 <0>         0.0154
     21 C17         6.2073    8.6832   -4.5127 C.ar      1 <0>        -0.1954
     22 C18         5.5576    7.8855   -5.4642 C.ar      1 <0>        -0.0632
     23 C19         5.0866    6.6495   -5.1318 C.ar      1 <0>        -0.1097
     24 C20         5.2462    6.1622   -3.8364 C.ar      1 <0>         0.1513
     25 N2          4.8888    4.9822   -3.2271 N.pl3     1 <0>        -0.5592
     26 H1          4.4270    4.2483   -3.6619 H         1 <0>         0.4321
     27 C21         6.7114   10.0202   -4.8905 C.cat     1 <0>         0.6062
     28 N3          6.5484   10.4663   -6.1351 N.pl3     1 <0>        -0.7707
     29 N4          7.3287   10.7793   -3.9863 N.pl3     1 <0>        -0.7711
     30 C22         6.9394    2.1940    1.8683 C.3       1 <0>        -0.1648
     31 C23         7.8438    1.1478    1.2694 C.2       1 <0>         0.4962
     32 O4          7.6291    0.7276    0.1452 O.co2     1 <0>        -0.6869
     33 O5          8.7902    0.7216    1.9091 O.co2     1 <0>        -0.6903
     34 H2         -0.9597    1.9050    0.0260 H         1 <0>         0.1483
     35 H3          1.1519    3.1676    0.0077 H         1 <0>         0.1359
     36 H4          3.3362   -0.5186   -0.0330 H         1 <0>         0.1592
     37 H5         -0.9270   -0.5547    0.0083 H         1 <0>         0.1535
     38 H6          4.5170    1.0460    1.5983 H         1 <0>         0.1319
     39 H7          6.9925    4.1143   -0.0209 H         1 <0>         0.1331
     40 H8          2.2608    4.1765   -1.5205 H         1 <0>         0.3829
     41 H9          6.3210    6.4720   -0.6842 H         1 <0>         0.1634
     42 H10         6.8773    8.8301   -2.4767 H         1 <0>         0.1369
     43 H11         5.4282    8.2535   -6.4713 H         1 <0>         0.1343
     44 H12         4.5880    6.0460   -5.8758 H         1 <0>         0.1417
     45 H13         6.0989    9.9136   -6.7935 H         1 <0>         0.4425
     46 H14         7.4474   10.4545   -3.0800 H         1 <0>         0.4430
     47 H15         7.6595   11.6568   -4.2342 H         1 <0>         0.4294
     48 H16         7.5209    3.0853    2.1037 H         1 <0>         0.0766
     49 H17         6.4868    1.8041    2.7801 H         1 <0>         0.0776
     50 H18         6.8792   11.3438   -6.3831 H         1 <0>         0.4290
@<TRIPOS>BOND
     1    1    6 ar
     2    1    2 ar
     3    1   34 1
     4    2    3 ar
     5    2   35 1
     6    3    4 ar
     7    3   10 1
     8    4    5 ar
     9    4   36 1
    10    5    6 ar
    11    5    7 1
    12    6   37 1
    13    7    8 2
    14    7    9 1
    15   10   15 ar
    16   10   11 ar
    17   11   12 ar
    18   11   38 1
    19   12   13 ar
    20   12   30 1
    21   13   14 ar
    22   13   39 1
    23   14   15 ar
    24   14   17 1
    25   15   16 1
    26   16   40 1
    27   17   25 1
    28   17   18 2
    29   18   19 1
    30   18   41 1
    31   19   24 ar
    32   19   20 ar
    33   20   21 ar
    34   20   42 1
    35   21   22 ar
    36   21   27 1
    37   22   23 ar
    38   22   43 1
    39   23   24 ar
    40   23   44 1
    41   24   25 1
    42   25   26 1
    43   27   28 2
    44   27   29 1
    45   28   45 1
    46   28   50 1
    47   29   46 1
    48   29   47 1
    49   30   31 1
    50   30   48 1
    51   30   49 1
    52   31   32 2
    53   31   33 1
@<TRIPOS>MOLECULE
CHEMBL198637
   56    58     0     0     0
SMALL
USER_CHARGES

@<TRIPOS>ATOM
      1 C1          0.0531    1.9236   -0.4319 C.3       1 <0>        -0.1444
      2 C2          0.0721    0.4168   -0.1671 C.3       1 <0>        -0.0864
      3 C3          0.7412   -0.2872   -1.3194 C.ar      1 <0>        -0.0398
      4 C4         -0.0107   -0.7147   -2.3984 C.ar      1 <0>        -0.1381
      5 C5          0.6001   -1.3608   -3.4569 C.ar      1 <0>        -0.0261
      6 C6          1.9639   -1.5816   -3.4390 C.ar      1 <0>        -0.1469
      7 C7          2.7203   -1.1538   -2.3579 C.ar      1 <0>         0.1359
      8 C8          2.1058   -0.5001   -1.2994 C.ar      1 <0>        -0.2116
      9 O1          4.0619   -1.3697   -2.3379 O.3       1 <0>        -0.3062
     10 C9          4.7592   -1.0101   -1.1435 C.3       1 <0>         0.0853
     11 C10         5.1297    0.4754   -1.1940 C.3       1 <0>        -0.1816
     12 C11         5.9439    0.8328    0.0522 C.3       1 <0>         0.0640
     13 O2          7.1055    0.0028    0.1149 O.3       1 <0>        -0.3802
     14 C12         6.8198   -1.3941    0.2114 C.3       1 <0>         0.0646
     15 C13         6.0408   -1.8410   -1.0284 C.3       1 <0>        -0.1530
     16 C14        -0.2224   -1.8253   -4.6312 C.3       1 <0>         0.0983
     17 C15        -0.5001   -3.3005   -4.4978 C.2       1 <0>         0.4942
     18 O3         -1.4973   -3.6823   -3.9092 O.co2     1 <0>        -0.6734
     19 O4          0.2723   -4.1121   -4.9786 O.co2     1 <0>        -0.6680
     20 N1          0.5152   -1.5775   -5.8725 N.pl3     1 <0>        -0.6590
     21 C16        -0.1732   -1.4205   -7.0711 C.ar      1 <0>         0.3054
     22 C17        -1.5631   -1.4934   -7.0885 C.ar      1 <0>        -0.1978
     23 C18        -2.2469   -1.3380   -8.2729 C.ar      1 <0>        -0.0011
     24 C19        -1.5445   -1.1069   -9.4584 C.ar      1 <0>        -0.2553
     25 C20        -0.1493   -1.0343   -9.4379 C.ar      1 <0>        -0.0024
     26 C21         0.5289   -1.1852   -8.2497 C.ar      1 <0>        -0.2063
     27 C22        -2.2753   -0.9403  -10.7308 C.cat     1 <0>         0.6020
     28 N2         -1.6040   -0.7199  -11.8609 N.pl3     1 <0>        -0.7832
     29 N3         -3.6061   -1.0102  -10.7491 N.pl3     1 <0>        -0.7813
     30 H1          1.0754    2.2872   -0.5356 H         1 <0>         0.0535
     31 H2         -0.4988    2.1243   -1.3502 H         1 <0>         0.0561
     32 H3         -0.4308    2.4329    0.4015 H         1 <0>         0.0583
     33 H4          0.6240    0.2162    0.7511 H         1 <0>         0.0710
     34 H5         -0.9502    0.0532   -0.0634 H         1 <0>         0.0764
     35 H6         -1.0770   -0.5437   -2.4140 H         1 <0>         0.1253
     36 H7          2.4405   -2.0871   -4.2659 H         1 <0>         0.1282
     37 H8          2.6933   -0.1618   -0.4587 H         1 <0>         0.1262
     38 H9          4.1230   -1.1993   -0.2789 H         1 <0>         0.0751
     39 H10         5.7239    0.6724   -2.0863 H         1 <0>         0.0839
     40 H11         4.2210    1.0768   -1.2202 H         1 <0>         0.0809
     41 H12         6.2469    1.8787    0.0008 H         1 <0>         0.1001
     42 H13         5.3351    0.6739    0.9422 H         1 <0>         0.0531
     43 H14         7.7538   -1.9525    0.2747 H         1 <0>         0.1042
     44 H15         6.2224   -1.5822    1.1035 H         1 <0>         0.0546
     45 H16         5.7837   -2.8963   -0.9362 H         1 <0>         0.0856
     46 H17         6.6534   -1.6908   -1.9173 H         1 <0>         0.0846
     47 H18        -1.1651   -1.2786   -4.6534 H         1 <0>         0.0966
     48 H19         1.4835   -1.5229   -5.8586 H         1 <0>         0.4082
     49 H20        -2.1055   -1.6724   -6.1719 H         1 <0>         0.1463
     50 H21        -3.3253   -1.3950   -8.2859 H         1 <0>         0.1290
     51 H22         0.3962   -0.8561  -10.3528 H         1 <0>         0.1281
     52 H23         1.6071   -1.1247   -8.2324 H         1 <0>         0.1393
     53 H24        -0.6355   -0.6690  -11.8477 H         1 <0>         0.4392
     54 H25        -4.0947   -1.1706   -9.9266 H         1 <0>         0.4407
     55 H26        -4.0861   -0.9008  -11.5849 H         1 <0>         0.4240
     56 H27        -2.0840   -0.6104  -12.6967 H         1 <0>         0.4238
@<TRIPOS>BOND
     1    1    2 1
     2    1   30 1
     3    1   31 1
     4    1   32 1
     5    2    3 1
     6    2   33 1
     7    2   34 1
     8    3    8 ar
     9    3    4 ar
    10    4    5 ar
    11    4   35 1
    12    5    6 ar
    13    5   16 1
    14    6    7 ar
    15    6   36 1
    16    7    8 ar
    17    7    9 1
    18    8   37 1
    19    9   10 1
    20   10   15 1
    21   10   11 1
    22   10   38 1
    23   11   12 1
    24   11   39 1
    25   11   40 1
    26   12   13 1
    27   12   41 1
    28   12   42 1
    29   13   14 1
    30   14   15 1
    31   14   43 1
    32   14   44 1
    33   15   45 1
    34   15   46 1
    35   16   17 1
    36   16   20 1
    37   16   47 1
    38   17   18 2
    39   17   19 1
    40   20   21 1
    41   20   48 1
    42   21   26 ar
    43   21   22 ar
    44   22   23 ar
    45   22   49 1
    46   23   24 ar
    47   23   50 1
    48   24   25 ar
    49   24   27 1
    50   25   26 ar
    51   25   51 1
    52   26   52 1
    53   27   28 2
    54   27   29 1
    55   28   53 1
    56   28   56 1
    57   29   54 1
    58   29   55 1
@<TRIPOS>MOLECULE
CHEMBL198637__1
   56    58     0     0     0
SMALL
USER_CHARGES

@<TRIPOS>ATOM
      1 C1          0.0531    1.9236   -0.4319 C.3       1 <0>        -0.1486
      2 C2          0.0721    0.4168   -0.1671 C.3       1 <0>        -0.0831
      3 C3          0.7412   -0.2872   -1.3194 C.ar      1 <0>        -0.0395
      4 C4         -0.0107   -0.7147   -2.3984 C.ar      1 <0>        -0.1340
      5 C5          0.6001   -1.3608   -3.4569 C.ar      1 <0>        -0.0214
      6 C6          1.9639   -1.5816   -3.4390 C.ar      1 <0>        -0.1531
      7 C7          2.7203   -1.1538   -2.3579 C.ar      1 <0>         0.1367
      8 C8          2.1058   -0.5001   -1.2994 C.ar      1 <0>        -0.2119
      9 O1          4.0619   -1.3697   -2.3379 O.3       1 <0>        -0.3067
     10 C9          4.7592   -1.0101   -1.1435 C.3       1 <0>         0.0864
     11 C10         5.1297    0.4754   -1.1940 C.3       1 <0>        -0.1847
     12 C11         5.9439    0.8328    0.0522 C.3       1 <0>         0.0648
     13 O2          7.1055    0.0028    0.1149 O.3       1 <0>        -0.3797
     14 C12         6.8198   -1.3941    0.2114 C.3       1 <0>         0.0650
     15 C13         6.0408   -1.8410   -1.0284 C.3       1 <0>        -0.1521
     16 C14        -0.2224   -1.8253   -4.6312 C.3       1 <0>         0.0966
     17 C15        -0.0860   -0.8383   -5.7618 C.2       1 <0>         0.4931
     18 O3          0.5290   -1.1459   -6.7686 O.co2     1 <0>        -0.6699
     19 O4         -0.5906    0.2677   -5.6697 O.co2     1 <0>        -0.6701
     20 N1          0.2524   -3.1398   -5.0705 N.pl3     1 <0>        -0.6576
     21 C16        -0.6070   -3.9992   -5.7473 C.ar      1 <0>         0.3114
     22 C17        -1.9160   -3.6065   -6.0115 C.ar      1 <0>        -0.1953
     23 C18        -2.7684   -4.4546   -6.6814 C.ar      1 <0>        -0.0018
     24 C19        -2.3186   -5.7106   -7.0963 C.ar      1 <0>        -0.2559
     25 C20        -1.0041   -6.1021   -6.8297 C.ar      1 <0>        -0.0024
     26 C21        -0.1545   -5.2477   -6.1641 C.ar      1 <0>        -0.2065
     27 C22        -3.2309   -6.6229   -7.8148 C.cat     1 <0>         0.6018
     28 N2         -2.8005   -7.8208   -8.2100 N.pl3     1 <0>        -0.7835
     29 N3         -4.4846   -6.2484   -8.0681 N.pl3     1 <0>        -0.7818
     30 H1          1.0754    2.2872   -0.5356 H         1 <0>         0.0546
     31 H2         -0.4988    2.1243   -1.3502 H         1 <0>         0.0618
     32 H3         -0.4308    2.4329    0.4015 H         1 <0>         0.0580
     33 H4          0.6240    0.2162    0.7511 H         1 <0>         0.0691
     34 H5         -0.9502    0.0532   -0.0634 H         1 <0>         0.0736
     35 H6         -1.0770   -0.5437   -2.4140 H         1 <0>         0.1249
     36 H7          2.4405   -2.0871   -4.2659 H         1 <0>         0.1258
     37 H8          2.6933   -0.1618   -0.4587 H         1 <0>         0.1262
     38 H9          4.1230   -1.1993   -0.2789 H         1 <0>         0.0742
     39 H10         5.7239    0.6724   -2.0863 H         1 <0>         0.0859
     40 H11         4.2210    1.0768   -1.2202 H         1 <0>         0.0828
     41 H12         6.2469    1.8787    0.0008 H         1 <0>         0.1014
     42 H13         5.3351    0.6739    0.9422 H         1 <0>         0.0527
     43 H14         7.7538   -1.9525    0.2747 H         1 <0>         0.1033
     44 H15         6.2224   -1.5822    1.1035 H         1 <0>         0.0534
     45 H16         5.7837   -2.8963   -0.9362 H         1 <0>         0.0829
     46 H17         6.6534   -1.6908   -1.9173 H         1 <0>         0.0853
     47 H18        -1.2692   -1.8971   -4.3359 H         1 <0>         0.0968
     48 H19         1.1659   -3.4109   -4.8894 H         1 <0>         0.4071
     49 H20        -2.2632   -2.6356   -5.6903 H         1 <0>         0.1426
     50 H21        -3.7840   -4.1495   -6.8858 H         1 <0>         0.1282
     51 H22        -0.6538   -7.0726   -7.1489 H         1 <0>         0.1276
     52 H23         0.8629   -5.5480   -5.9616 H         1 <0>         0.1387
     53 H24        -1.8880   -8.0934   -8.0257 H         1 <0>         0.4391
     54 H25        -4.7979   -5.3766   -7.7804 H         1 <0>         0.4405
     55 H26        -5.0838   -6.8477   -8.5400 H         1 <0>         0.4238
     56 H27        -3.3997   -8.4200   -8.6819 H         1 <0>         0.4236
@<TRIPOS>BOND
     1    1    2 1
     2    1   30 1
     3    1   31 1
     4    1   32 1
     5    2    3 1
     6    2   33 1
     7    2   34 1
     8    3    8 ar
     9    3    4 ar
    10    4    5 ar
    11    4   35 1
    12    5    6 ar
    13    5   16 1
    14    6    7 ar
    15    6   36 1
    16    7    8 ar
    17    7    9 1
    18    8   37 1
    19    9   10 1
    20   10   15 1
    21   10   11 1
    22   10   38 1
    23   11   12 1
    24   11   39 1
    25   11   40 1
    26   12   13 1
    27   12   41 1
    28   12   42 1
    29   13   14 1
    30   14   15 1
    31   14   43 1
    32   14   44 1
    33   15   45 1
    34   15   46 1
    35   16   17 1
    36   16   20 1
    37   16   47 1
    38   17   18 2
    39   17   19 1
    40   20   21 1
    41   20   48 1
    42   21   26 ar
    43   21   22 ar
    44   22   23 ar
    45   22   49 1
    46   23   24 ar
    47   23   50 1
    48   24   25 ar
    49   24   27 1
    50   25   26 ar
    51   25   51 1
    52   26   52 1
    53   27   28 2
    54   27   29 1
    55   28   53 1
    56   28   56 1
    57   29   54 1
    58   29   55 1
@<TRIPOS>MOLECULE
CHEMBL441030
   54    56     0     0     0
SMALL
USER_CHARGES

@<TRIPOS>ATOM
      1 C1         -0.0557    1.3534    0.0011 C.ar      1 <0>        -0.1153
      2 C2          1.1262    2.0704   -0.0067 C.ar      1 <0>        -0.1163
      3 C3          2.3380    1.4053   -0.0202 C.ar      1 <0>        -0.1005
      4 C4          2.3678    0.0232   -0.0254 C.ar      1 <0>        -0.0947
      5 C5          1.1859   -0.6937   -0.0166 C.ar      1 <0>        -0.1048
      6 C6         -0.0258   -0.0286   -0.0045 C.ar      1 <0>        -0.1200
      7 C7          3.6888   -0.7018   -0.0410 C.3       1 <0>         0.2331
      8 C8          4.0244   -1.1647    1.3533 C.ar      1 <0>        -0.0943
      9 C9          3.4450   -2.3138    1.8583 C.ar      1 <0>        -0.1125
     10 C10         3.7528   -2.7384    3.1373 C.ar      1 <0>        -0.1137
     11 C11         4.6403   -2.0142    3.9111 C.ar      1 <0>        -0.1127
     12 C12         5.2203   -0.8657    3.4058 C.ar      1 <0>        -0.1126
     13 C13         4.9158   -0.4435    2.1252 C.ar      1 <0>        -0.1029
     14 N1          3.5990   -1.8612   -0.9321 N.am      1 <0>        -0.7143
     15 C14         3.8116   -1.7127   -2.2547 C.2       1 <0>         0.5130
     16 O1          4.0773   -0.6193   -2.7072 O.2       1 <0>        -0.5278
     17 C15         3.7192   -2.9053   -3.1713 C.3       1 <0>         0.1165
     18 N2          3.9898   -2.4850   -4.5484 N.am      1 <0>        -0.7194
     19 C16         3.9621   -3.3898   -5.5469 C.2       1 <0>         0.7105
     20 O2          3.7125   -4.5548   -5.3049 O.2       1 <0>        -0.5656
     21 N3          4.2110   -3.0030   -6.8138 N.am      1 <0>        -0.6838
     22 C17         4.2773   -3.9532   -7.8327 C.ar      1 <0>         0.2468
     23 C18         3.4424   -5.0654   -7.8000 C.ar      1 <0>        -0.1244
     24 C19         3.5057   -6.0054   -8.8042 C.ar      1 <0>        -0.0327
     25 C20         4.4093   -5.8410   -9.8567 C.ar      1 <0>        -0.1855
     26 C21         5.2460   -4.7229   -9.8869 C.ar      1 <0>        -0.0305
     27 C22         5.1742   -3.7838   -8.8825 C.ar      1 <0>        -0.1495
     28 C23         4.4801   -6.8479  -10.9354 C.cat     1 <0>         0.6034
     29 N4          5.3426   -6.6898  -11.9388 N.pl3     1 <0>        -0.7664
     30 N5          3.6816   -7.9143  -10.9050 N.pl3     1 <0>        -0.7654
     31 H1         -1.0024    1.8731    0.0162 H         1 <0>         0.1235
     32 H2          1.1029    3.1501   -0.0027 H         1 <0>         0.1251
     33 H3          3.2613    1.9654   -0.0270 H         1 <0>         0.1227
     34 H4          1.2093   -1.7734   -0.0213 H         1 <0>         0.1157
     35 H5         -0.9492   -0.5887    0.0019 H         1 <0>         0.1227
     36 H6          4.4685   -0.0289   -0.3979 H         1 <0>         0.1074
     37 H7          2.7516   -2.8795    1.2537 H         1 <0>         0.1185
     38 H8          3.2996   -3.6357    3.5321 H         1 <0>         0.1261
     39 H9          4.8802   -2.3456    4.9106 H         1 <0>         0.1259
     40 H10         5.9134   -0.2998    4.0106 H         1 <0>         0.1274
     41 H11         5.3719    0.4518    1.7291 H         1 <0>         0.1252
     42 H12         3.3864   -2.7357   -0.5702 H         1 <0>         0.4050
     43 H13         4.4520   -3.6535   -2.8691 H         1 <0>         0.1067
     44 H14         2.7181   -3.3325   -3.1119 H         1 <0>         0.1063
     45 H15         4.1888   -1.5555   -4.7415 H         1 <0>         0.4147
     46 H16         4.3441   -2.0639   -7.0169 H         1 <0>         0.4206
     47 H17         2.7440   -5.1919   -6.9860 H         1 <0>         0.1646
     48 H18         2.8578   -6.8690   -8.7779 H         1 <0>         0.1402
     49 H19         5.9456   -4.5931  -10.6994 H         1 <0>         0.1412
     50 H20         5.8180   -2.9170   -8.9074 H         1 <0>         0.1515
     51 H21         5.9238   -5.9135  -11.9610 H         1 <0>         0.4431
     52 H22         3.0538   -8.0294  -10.1746 H         1 <0>         0.4438
     53 H23         3.7282   -8.5754  -11.6133 H         1 <0>         0.4323
     54 H24         5.3891   -7.3509  -12.6471 H         1 <0>         0.4323
@<TRIPOS>BOND
     1    1    6 ar
     2    1    2 ar
     3    1   31 1
     4    2    3 ar
     5    2   32 1
     6    3    4 ar
     7    3   33 1
     8    4    5 ar
     9    4    7 1
    10    5    6 ar
    11    5   34 1
    12    6   35 1
    13    7    8 1
    14    7   14 1
    15    7   36 1
    16    8   13 ar
    17    8    9 ar
    18    9   10 ar
    19    9   37 1
    20   10   11 ar
    21   10   38 1
    22   11   12 ar
    23   11   39 1
    24   12   13 ar
    25   12   40 1
    26   13   41 1
    27   14   15 am
    28   14   42 1
    29   15   16 2
    30   15   17 1
    31   17   18 1
    32   17   43 1
    33   17   44 1
    34   18   19 am
    35   18   45 1
    36   19   20 2
    37   19   21 am
    38   21   22 1
    39   21   46 1
    40   22   27 ar
    41   22   23 ar
    42   23   24 ar
    43   23   47 1
    44   24   25 ar
    45   24   48 1
    46   25   26 ar
    47   25   28 1
    48   26   27 ar
    49   26   49 1
    50   27   50 1
    51   28   29 2
    52   28   30 1
    53   29   51 1
    54   29   54 1
    55   30   52 1
    56   30   53 1
@<TRIPOS>MOLECULE
CHEMBL73737
   44    47     0     0     0
SMALL
USER_CHARGES

@<TRIPOS>ATOM
      1 C1         -0.0167    1.3775    0.0096 C.ar      1 <0>        -0.0663
      2 C2          1.1671    2.0883    0.0021 C.ar      1 <0>        -0.1542
      3 C3          2.3862    1.4127   -0.0131 C.ar      1 <0>        -0.0049
      4 C4          2.4064    0.0202   -0.0207 C.ar      1 <0>        -0.1814
      5 C5          1.2131   -0.6864   -0.0131 C.ar      1 <0>         0.2212
      6 C6          0.0021   -0.0041    0.0020 C.ar      1 <0>        -0.1878
      7 N1          1.2282   -2.0832   -0.0212 N.pl3     1 <0>        -0.8767
      8 C7          3.6588    2.1749   -0.0216 C.ar      1 <0>        -0.0525
      9 C8          4.6669    1.8605    0.8868 C.ar      1 <0>        -0.0522
     10 C9          5.8545    2.5691    0.8816 C.ar      1 <0>        -0.0436
     11 C10         6.0525    3.5942   -0.0225 C.ar      1 <0>        -0.0721
     12 C11         5.0528    3.9227   -0.9399 C.ar      1 <0>        -0.0759
     13 C12         3.8511    3.2057   -0.9443 C.ar      1 <0>         0.1909
     14 O1          2.8759    3.5138   -1.8364 O.3       1 <0>        -0.4595
     15 C13         5.2651    5.0195   -1.9062 C.2       1 <0>         0.3815
     16 N2          4.3933    5.4135   -2.8045 N.2       1 <0>        -0.4596
     17 C14         4.9047    6.4345   -3.5203 C.ar      1 <0>         0.1163
     18 C15         4.4067    7.2076   -4.5780 C.ar      1 <0>        -0.0510
     19 C16         5.1696    8.1981   -5.1178 C.ar      1 <0>        -0.0830
     20 C17         6.4556    8.4551   -4.6246 C.ar      1 <0>        -0.1542
     21 C18         6.9666    7.6960   -3.5732 C.ar      1 <0>        -0.0265
     22 C19         6.1965    6.6882   -3.0204 C.ar      1 <0>         0.0325
     23 N3          6.3976    5.7815   -1.9956 N.pl3     1 <0>        -0.5884
     24 C20         7.2718    9.5324   -5.2204 C.cat     1 <0>         0.6079
     25 N4          7.1195    9.8506   -6.5056 N.pl3     1 <0>        -0.7581
     26 N5          8.1603   10.1864   -4.4728 N.pl3     1 <0>        -0.7633
     27 Cl1         7.1036    2.1680    2.0186 Cl        1 <0>        -0.0447
     28 H1         -0.9600    1.9030    0.0259 H         1 <0>         0.1268
     29 H2          1.1484    3.1681    0.0077 H         1 <0>         0.1153
     30 H3          3.3484   -0.5077   -0.0329 H         1 <0>         0.1222
     31 H4         -0.9266   -0.5553    0.0082 H         1 <0>         0.1234
     32 H5          2.0733   -2.5590   -0.0321 H         1 <0>         0.3997
     33 H6          0.3934   -2.5772   -0.0159 H         1 <0>         0.4014
     34 H7          4.5204    1.0609    1.5977 H         1 <0>         0.1508
     35 H8          6.9826    4.1432   -0.0195 H         1 <0>         0.1367
     36 H9          2.2508    4.1807   -1.5210 H         1 <0>         0.3985
     37 H10         3.4168    7.0172   -4.9656 H         1 <0>         0.1552
     38 H11         4.7803    8.7900   -5.9329 H         1 <0>         0.1452
     39 H12         7.9579    7.8931   -3.1925 H         1 <0>         0.1401
     40 H13         6.4728    9.3746   -7.0497 H         1 <0>         0.4473
     41 H14         8.2711    9.9548   -3.5373 H         1 <0>         0.4445
     42 H15         8.6963   10.8939   -4.8640 H         1 <0>         0.4327
     43 H16         7.6555   10.5581   -6.8969 H         1 <0>         0.4329
     44 H17         7.1925    5.6998   -1.4456 H         1 <0>         0.4327
@<TRIPOS>BOND
     1    1    6 ar
     2    1    2 ar
     3    1   28 1
     4    2    3 ar
     5    2   29 1
     6    3    4 ar
     7    3    8 1
     8    4    5 ar
     9    4   30 1
    10    5    6 ar
    11    5    7 1
    12    6   31 1
    13    7   32 1
    14    7   33 1
    15    8   13 ar
    16    8    9 ar
    17    9   10 ar
    18    9   34 1
    19   10   11 ar
    20   10   27 1
    21   11   12 ar
    22   11   35 1
    23   12   13 ar
    24   12   15 1
    25   13   14 1
    26   14   36 1
    27   15   23 1
    28   15   16 2
    29   16   17 1
    30   17   22 ar
    31   17   18 ar
    32   18   19 ar
    33   18   37 1
    34   19   20 ar
    35   19   38 1
    36   20   21 ar
    37   20   24 1
    38   21   22 ar
    39   21   39 1
    40   22   23 1
    41   23   44 1
    42   24   25 2
    43   24   26 1
    44   25   40 1
    45   25   43 1
    46   26   41 1
    47   26   42 1
@<TRIPOS>MOLECULE
CHEMBL73737__1
   43    46     0     0     0
SMALL
USER_CHARGES

@<TRIPOS>ATOM
      1 C1         -0.0167    1.3775    0.0096 C.ar      1 <0>        -0.0812
      2 C2          1.1671    2.0883    0.0021 C.ar      1 <0>        -0.1344
      3 C3          2.3862    1.4127   -0.0136 C.ar      1 <0>         0.0485
      4 C4          2.4064    0.0202   -0.0212 C.ar      1 <0>        -0.1960
      5 C5          1.2131   -0.6864   -0.0131 C.ar      1 <0>         0.2050
      6 C6          0.0021   -0.0041    0.0020 C.ar      1 <0>        -0.2103
      7 N1          1.2282   -2.0832   -0.0212 N.pl3     1 <0>        -0.8859
      8 C7          3.6588    2.1749   -0.0226 C.ar      1 <0>        -0.1727
      9 C8          4.6673    1.8605    0.8855 C.ar      1 <0>        -0.0255
     10 C9          5.8548    2.5691    0.8798 C.ar      1 <0>        -0.1576
     11 C10         6.0522    3.5943   -0.0246 C.ar      1 <0>        -0.0211
     12 C11         5.0522    3.9226   -0.9414 C.ar      1 <0>        -0.2258
     13 C12         3.8507    3.2057   -0.9453 C.ar      1 <0>         0.3276
     14 O1          2.8751    3.5138   -1.8370 O.3       1 <0>        -0.6247
     15 C13         5.2642    5.0194   -1.9085 C.2       1 <0>         0.4148
     16 N2          6.4004    5.7783   -2.0020 N.pl3     1 <0>        -0.6044
     17 H1          7.1962    5.6922   -1.4541 H         1 <0>         0.4255
     18 C14         6.2033    6.6874   -3.0203 C.ar      1 <0>         0.0792
     19 C15         6.9840    7.6977   -3.5700 C.ar      1 <0>        -0.0915
     20 C16         6.5024    8.4532   -4.5998 C.ar      1 <0>        -0.0889
     21 C17         5.2202    8.2200   -5.1129 C.ar      1 <0>        -0.1796
     22 C18         4.4243    7.2137   -4.5767 C.ar      1 <0>        -0.0019
     23 C19         4.9124    6.4386   -3.5238 C.ar      1 <0>         0.0591
     24 N3          4.3952    5.4085   -2.8092 N.2       1 <0>        -0.4501
     25 C20         4.7112    9.0466   -6.2277 C.cat     1 <0>         0.6119
     26 N4          5.1192   10.3076   -6.3622 N.pl3     1 <0>        -0.7682
     27 N5          3.8444    8.5306   -7.0978 N.pl3     1 <0>        -0.7655
     28 Cl1         7.1044    2.1682    2.0162 Cl        1 <0>        -0.1069
     29 H2         -0.9600    1.9030    0.0259 H         1 <0>         0.1139
     30 H3          1.1484    3.1681    0.0081 H         1 <0>         0.1187
     31 H4          3.3484   -0.5077   -0.0337 H         1 <0>         0.1135
     32 H5         -0.9266   -0.5553    0.0082 H         1 <0>         0.1102
     33 H6          2.0733   -2.5590   -0.0324 H         1 <0>         0.3939
     34 H7          0.3934   -2.5772   -0.0155 H         1 <0>         0.3932
     35 H8          4.5212    1.0609    1.5965 H         1 <0>         0.1162
     36 H9          6.9822    4.1434   -0.0221 H         1 <0>         0.1029
     37 H10         7.9738    7.8855   -3.1811 H         1 <0>         0.1365
     38 H11         7.1144    9.2367   -5.0217 H         1 <0>         0.1346
     39 H12         3.4354    7.0337   -4.9718 H         1 <0>         0.1409
     40 H13         5.7503   10.6834   -5.7287 H         1 <0>         0.4443
     41 H14         3.5473    7.6124   -6.9999 H         1 <0>         0.4472
     42 H15         3.5104    9.0730   -7.8293 H         1 <0>         0.4275
     43 H16         4.7852   10.8500   -7.0937 H         1 <0>         0.4271
@<TRIPOS>BOND
     1    1    6 ar
     2    1    2 ar
     3    1   29 1
     4    2    3 ar
     5    2   30 1
     6    3    4 ar
     7    3    8 1
     8    4    5 ar
     9    4   31 1
    10    5    6 ar
    11    5    7 1
    12    6   32 1
    13    7   33 1
    14    7   34 1
    15    8   13 ar
    16    8    9 ar
    17    9   10 ar
    18    9   35 1
    19   10   11 ar
    20   10   28 1
    21   11   12 ar
    22   11   36 1
    23   12   13 ar
    24   12   15 1
    25   13   14 1
    26   15   24 2
    27   15   16 1
    28   16   17 1
    29   16   18 1
    30   18   23 ar
    31   18   19 ar
    32   19   20 ar
    33   19   37 1
    34   20   21 ar
    35   20   38 1
    36   21   22 ar
    37   21   25 1
    38   22   23 ar
    39   22   39 1
    40   23   24 1
    41   25   26 2
    42   25   27 1
    43   26   40 1
    44   26   43 1
    45   27   41 1
    46   27   42 1
@<TRIPOS>MOLECULE
CHEMBL73737__2
   44    47     0     0     0
SMALL
USER_CHARGES

@<TRIPOS>ATOM
      1 C1         -0.0167    1.3775    0.0096 C.ar      1 <0>        -0.0668
      2 C2          1.1671    2.0883    0.0021 C.ar      1 <0>        -0.1548
      3 C3          2.3862    1.4127   -0.0136 C.ar      1 <0>        -0.0036
      4 C4          2.4064    0.0202   -0.0212 C.ar      1 <0>        -0.1815
      5 C5          1.2131   -0.6864   -0.0131 C.ar      1 <0>         0.2214
      6 C6          0.0021   -0.0041    0.0020 C.ar      1 <0>        -0.1885
      7 N1          1.2282   -2.0832   -0.0212 N.pl3     1 <0>        -0.8767
      8 C7          3.6588    2.1749   -0.0226 C.ar      1 <0>        -0.0524
      9 C8          4.6673    1.8605    0.8855 C.ar      1 <0>        -0.0547
     10 C9          5.8548    2.5691    0.8798 C.ar      1 <0>        -0.0420
     11 C10         6.0522    3.5943   -0.0246 C.ar      1 <0>        -0.0739
     12 C11         5.0522    3.9226   -0.9414 C.ar      1 <0>        -0.0701
     13 C12         3.8507    3.2057   -0.9453 C.ar      1 <0>         0.1862
     14 O1          2.8751    3.5138   -1.8370 O.3       1 <0>        -0.4606
     15 C13         5.2642    5.0194   -1.9085 C.2       1 <0>         0.3632
     16 N2          6.4004    5.7783   -2.0020 N.pl3     1 <0>        -0.5865
     17 H1          7.1962    5.6922   -1.4541 H         1 <0>         0.4345
     18 C14         6.2033    6.6874   -3.0203 C.ar      1 <0>         0.0980
     19 C15         6.9840    7.6977   -3.5700 C.ar      1 <0>        -0.0890
     20 C16         6.5024    8.4532   -4.5998 C.ar      1 <0>        -0.0665
     21 C17         5.2202    8.2200   -5.1129 C.ar      1 <0>        -0.1673
     22 C18         4.4243    7.2137   -4.5767 C.ar      1 <0>         0.0149
     23 C19         4.9124    6.4386   -3.5238 C.ar      1 <0>         0.0466
     24 N3          4.3952    5.4085   -2.8092 N.2       1 <0>        -0.4474
     25 C20         4.7112    9.0466   -6.2277 C.cat     1 <0>         0.6086
     26 N4          5.1192   10.3076   -6.3622 N.pl3     1 <0>        -0.7599
     27 N5          3.8444    8.5306   -7.0978 N.pl3     1 <0>        -0.7603
     28 Cl1         7.1044    2.1682    2.0162 Cl        1 <0>        -0.0442
     29 H2         -0.9600    1.9030    0.0259 H         1 <0>         0.1262
     30 H3          1.1484    3.1681    0.0081 H         1 <0>         0.1148
     31 H4          3.3484   -0.5077   -0.0337 H         1 <0>         0.1224
     32 H5         -0.9266   -0.5553    0.0082 H         1 <0>         0.1232
     33 H6          2.0733   -2.5590   -0.0324 H         1 <0>         0.3999
     34 H7          0.3934   -2.5772   -0.0155 H         1 <0>         0.4013
     35 H8          4.5212    1.0609    1.5965 H         1 <0>         0.1503
     36 H9          6.9822    4.1434   -0.0221 H         1 <0>         0.1372
     37 H10         2.2501    4.1807   -1.5214 H         1 <0>         0.3965
     38 H11         7.9738    7.8855   -3.1811 H         1 <0>         0.1475
     39 H12         7.1144    9.2367   -5.0217 H         1 <0>         0.1459
     40 H13         3.4354    7.0337   -4.9718 H         1 <0>         0.1492
     41 H14         5.7503   10.6834   -5.7287 H         1 <0>         0.4462
     42 H15         3.5473    7.6124   -6.9999 H         1 <0>         0.4467
     43 H16         3.5104    9.0730   -7.8293 H         1 <0>         0.4329
     44 H17         4.7852   10.8500   -7.0937 H         1 <0>         0.4328
@<TRIPOS>BOND
     1    1    6 ar
     2    1    2 ar
     3    1   29 1
     4    2    3 ar
     5    2   30 1
     6    3    4 ar
     7    3    8 1
     8    4    5 ar
     9    4   31 1
    10    5    6 ar
    11    5    7 1
    12    6   32 1
    13    7   33 1
    14    7   34 1
    15    8   13 ar
    16    8    9 ar
    17    9   10 ar
    18    9   35 1
    19   10   11 ar
    20   10   28 1
    21   11   12 ar
    22   11   36 1
    23   12   13 ar
    24   12   15 1
    25   13   14 1
    26   14   37 1
    27   15   24 2
    28   15   16 1
    29   16   17 1
    30   16   18 1
    31   18   23 ar
    32   18   19 ar
    33   19   20 ar
    34   19   38 1
    35   20   21 ar
    36   20   39 1
    37   21   22 ar
    38   21   25 1
    39   22   23 ar
    40   22   40 1
    41   23   24 1
    42   25   26 2
    43   25   27 1
    44   26   41 1
    45   26   44 1
    46   27   42 1
    47   27   43 1
@<TRIPOS>MOLECULE
CHEMBL506240
   77    78     0     0     0
SMALL
USER_CHARGES

@<TRIPOS>ATOM
      1 C1          0.4532    1.2255    0.2354 C.3       1 <0>        -0.1519
      2 C2          0.0363   -0.2447    0.3112 C.3       1 <0>        -0.1211
      3 C3         -1.4681   -0.3619    0.0586 C.3       1 <0>        -0.0919
      4 H1         -1.7149    0.1113   -0.8918 H         1 <0>         0.0883
      5 C4         -2.2307    0.3338    1.1879 C.3       1 <0>        -0.1516
      6 C5         -1.8637   -1.8391    0.0106 C.3       1 <0>         0.1371
      7 H2         -2.9470   -1.9226   -0.0764 H         1 <0>         0.1215
      8 C6         -1.2121   -2.4952   -1.1794 C.2       1 <0>         0.5080
      9 O1         -0.4518   -3.4262   -1.0178 O.2       1 <0>        -0.5214
     10 N1         -1.4743   -2.0474   -2.4232 N.am      1 <0>        -0.7120
     11 C7         -0.8409   -2.6852   -3.5801 C.3       1 <0>         0.1292
     12 H3          0.1674   -3.0019   -3.3135 H         1 <0>         0.1208
     13 C8         -1.6629   -3.9041   -4.0039 C.3       1 <0>        -0.1109
     14 C9         -1.6272   -4.9549   -2.8924 C.3       1 <0>        -0.1397
     15 C10        -2.4368   -6.1554   -3.3099 C.2       1 <0>         0.5164
     16 O2         -2.9881   -6.1692   -4.3901 O.2       1 <0>        -0.5530
     17 N2         -2.5482   -7.2138   -2.4829 N.am      1 <0>        -0.8517
     18 C11        -0.7739   -1.7031   -4.7211 C.2       1 <0>         0.5193
     19 O3         -1.2121   -0.5808   -4.5817 O.2       1 <0>        -0.5167
     20 N3         -0.2271   -2.0718   -5.8964 N.am      1 <0>        -0.7268
     21 C12        -0.1620   -1.1170   -7.0056 C.3       1 <0>         0.1462
     22 C13         0.4896   -1.7731   -8.1956 C.ar      1 <0>        -0.0367
     23 C14         1.8624   -1.7059   -8.3533 C.ar      1 <0>        -0.0958
     24 C15         2.4649   -2.3041   -9.4409 C.ar      1 <0>        -0.0585
     25 C16         1.6867   -2.9783  -10.3824 C.ar      1 <0>        -0.1520
     26 C17         0.3028   -3.0428  -10.2174 C.ar      1 <0>        -0.0569
     27 C18        -0.2871   -2.4449   -9.1227 C.ar      1 <0>        -0.0937
     28 C19         2.3263   -3.6217  -11.5513 C.cat     1 <0>         0.6009
     29 N4          1.5810   -4.2643  -12.4482 N.pl3     1 <0>        -0.7607
     30 N5          3.6472   -3.5580  -11.7063 N.pl3     1 <0>        -0.7618
     31 N6         -1.4197   -2.5036    1.2385 N.pl3     1 <0>        -1.0958
     32 S1         -2.5128   -3.3118    2.1842 S.o2      1 <0>         2.5973
     33 O4         -1.7458   -3.8311    3.2618 O.2       1 <0>        -0.9478
     34 O5         -3.5518   -2.3720    2.4214 O.2       1 <0>        -0.9348
     35 C20        -3.1209   -4.6654    1.1408 C.3       1 <0>        -0.5660
     36 C21        -4.1330   -5.4759    1.9088 C.ar      1 <0>        -0.1241
     37 C22        -3.7186   -6.5526    2.6734 C.ar      1 <0>        -0.1126
     38 C23        -4.6408   -7.3023    3.3818 C.ar      1 <0>        -0.1365
     39 C24        -5.9814   -6.9813    3.3301 C.ar      1 <0>        -0.0714
     40 C25        -6.4070   -5.8959    2.5605 C.ar      1 <0>        -0.1298
     41 C26        -5.4692   -5.1395    1.8525 C.ar      1 <0>        -0.0660
     42 C27        -7.8390   -5.5462    2.5002 C.2       1 <0>         0.5192
     43 O6         -8.6567   -6.2071    3.1249 O.co2     1 <0>        -0.6825
     44 O7         -8.2084   -4.5954    1.8256 O.co2     1 <0>        -0.6829
     45 H4          1.5250    1.3090    0.4154 H         1 <0>         0.0530
     46 H5          0.2192    1.6189   -0.7539 H         1 <0>         0.0535
     47 H6         -0.0876    1.7959    0.9905 H         1 <0>         0.0610
     48 H7          0.5771   -0.8151   -0.4439 H         1 <0>         0.0596
     49 H8          0.2703   -0.6381    1.3004 H         1 <0>         0.0690
     50 H9         -1.9051   -0.0679    2.1474 H         1 <0>         0.0620
     51 H10        -2.0304    1.4048    1.1556 H         1 <0>         0.0628
     52 H11        -3.2998    0.1603    1.0652 H         1 <0>         0.0696
     53 H12        -2.0824   -1.3028   -2.5525 H         1 <0>         0.4150
     54 H13        -2.6943   -3.6016   -4.1850 H         1 <0>         0.0852
     55 H14        -1.2425   -4.3263   -4.9167 H         1 <0>         0.0820
     56 H15        -0.5958   -5.2573   -2.7114 H         1 <0>         0.1042
     57 H16        -2.0476   -4.5327   -1.9797 H         1 <0>         0.0994
     58 H17        -2.1073   -7.2028   -1.6190 H         1 <0>         0.4045
     59 H18        -3.0693   -7.9865   -2.7517 H         1 <0>         0.4037
     60 H19         0.1234   -2.9694   -6.0079 H         1 <0>         0.4053
     61 H20        -1.1703   -0.8004   -7.2722 H         1 <0>         0.0927
     62 H21         0.4236   -0.2487   -6.7036 H         1 <0>         0.0915
     63 H22         2.4637   -1.1838   -7.6238 H         1 <0>         0.1514
     64 H23         3.5366   -2.2504   -9.5632 H         1 <0>         0.1399
     65 H24        -0.3050   -3.5629  -10.9429 H         1 <0>         0.1407
     66 H25        -1.3578   -2.4976   -8.9917 H         1 <0>         0.1532
     67 H26         0.6187   -4.3107  -12.3353 H         1 <0>         0.4451
     68 H27         4.1902   -3.0898  -11.0529 H         1 <0>         0.4444
     69 H28         4.0665   -3.9797  -12.4726 H         1 <0>         0.4336
     70 H29        -0.4856   -2.4702    1.4975 H         1 <0>         0.4219
     71 H30        -3.5885   -4.2531    0.2467 H         1 <0>         0.1294
     72 H31        -2.2866   -5.3049    0.8525 H         1 <0>         0.1376
     73 H32        -2.6704   -6.8089    2.7170 H         1 <0>         0.1198
     74 H33        -4.3103   -8.1412    3.9764 H         1 <0>         0.1222
     75 H34        -6.7002   -7.5678    3.8830 H         1 <0>         0.1322
     76 H35        -5.7906   -4.2962    1.2593 H         1 <0>         0.1316
     77 H36         2.0003   -4.6860  -13.2145 H         1 <0>         0.4338
@<TRIPOS>BOND
     1    1    2 1
     2    1   45 1
     3    1   46 1
     4    1   47 1
     5    2    3 1
     6    2   48 1
     7    2   49 1
     8    3    4 1
     9    3    5 1
    10    3    6 1
    11    5   50 1
    12    5   51 1
    13    5   52 1
    14    6    7 1
    15    6    8 1
    16    6   31 1
    17    8    9 2
    18    8   10 am
    19   10   11 1
    20   10   53 1
    21   11   12 1
    22   11   13 1
    23   11   18 1
    24   13   14 1
    25   13   54 1
    26   13   55 1
    27   14   15 1
    28   14   56 1
    29   14   57 1
    30   15   16 2
    31   15   17 am
    32   17   58 1
    33   17   59 1
    34   18   19 2
    35   18   20 am
    36   20   21 1
    37   20   60 1
    38   21   22 1
    39   21   61 1
    40   21   62 1
    41   22   27 ar
    42   22   23 ar
    43   23   24 ar
    44   23   63 1
    45   24   25 ar
    46   24   64 1
    47   25   26 ar
    48   25   28 1
    49   26   27 ar
    50   26   65 1
    51   27   66 1
    52   28   29 2
    53   28   30 1
    54   29   67 1
    55   29   77 1
    56   30   68 1
    57   30   69 1
    58   31   32 1
    59   31   70 1
    60   32   33 2
    61   32   34 2
    62   32   35 1
    63   35   36 1
    64   35   71 1
    65   35   72 1
    66   36   41 ar
    67   36   37 ar
    68   37   38 ar
    69   37   73 1
    70   38   39 ar
    71   38   74 1
    72   39   40 ar
    73   39   75 1
    74   40   41 ar
    75   40   42 1
    76   41   76 1
    77   42   43 2
    78   42   44 1
@<TRIPOS>MOLECULE
CHEMBL332753
   60    62     0     0     0
SMALL
USER_CHARGES

@<TRIPOS>ATOM
      1 C1         -0.0197    1.5043   -0.0106 C.3       1 <0>        -0.1603
      2 C2          0.0007   -0.0256   -0.0066 C.3       1 <0>         0.1878
      3 C3         -1.4133   -0.5468    0.0092 C.ar      1 <0>        -0.0969
      4 C4         -2.1225   -0.5814    1.1960 C.ar      1 <0>        -0.0943
      5 C5         -3.4186   -1.0579    1.2144 C.ar      1 <0>        -0.1142
      6 C6         -4.0102   -1.5028    0.0392 C.ar      1 <0>         0.2065
      7 C7         -3.2952   -1.4668   -1.1518 C.ar      1 <0>        -0.0944
      8 C8         -2.0004   -0.9838   -1.1638 C.ar      1 <0>        -0.0725
      9 Br1        -4.0949   -2.0717   -2.7550 Br        1 <0>        -0.0328
     10 N1         -5.3213   -1.9859    0.0545 N.pl3     1 <0>        -0.6793
     11 C9         -5.6007   -3.4110    0.2923 C.3       1 <0>         0.1115
     12 C10        -6.6579   -3.5185    1.3972 C.3       1 <0>         0.0469
     13 O1         -7.7794   -2.6998    1.0569 O.3       1 <0>        -0.3780
     14 C11        -7.4785   -1.3055    0.9610 C.3       1 <0>         0.0469
     15 C12        -6.4636   -1.0836   -0.1606 C.3       1 <0>         0.1110
     16 N2          0.7099   -0.5014    1.1837 N.am      1 <0>        -0.7166
     17 C13         2.0530   -0.6123    1.1686 C.2       1 <0>         0.5120
     18 O2          2.6745   -0.3182    0.1695 O.2       1 <0>        -0.5319
     19 C14         2.7825   -1.1017    2.3930 C.3       1 <0>         0.1159
     20 N3          4.2222   -1.1325    2.1240 N.am      1 <0>        -0.7200
     21 C15         5.0782   -1.5401    3.0819 C.2       1 <0>         0.7105
     22 O3          4.6556   -1.8822    4.1693 O.2       1 <0>        -0.5656
     23 N4          6.4028   -1.5685    2.8343 N.am      1 <0>        -0.6838
     24 C16         7.2959   -1.8977    3.8538 C.ar      1 <0>         0.2464
     25 C17         6.9410   -2.8456    4.8082 C.ar      1 <0>        -0.1244
     26 C18         7.8204   -3.1724    5.8161 C.ar      1 <0>        -0.0328
     27 C19         9.0700   -2.5515    5.8794 C.ar      1 <0>        -0.1852
     28 C20         9.4235   -1.6004    4.9193 C.ar      1 <0>        -0.0306
     29 C21         8.5419   -1.2817    3.9109 C.ar      1 <0>        -0.1493
     30 C22        10.0156   -2.8995    6.9598 C.cat     1 <0>         0.6033
     31 N5         11.2073   -2.3063    7.0189 N.pl3     1 <0>        -0.7663
     32 N6          9.6768   -3.8066    7.8752 N.pl3     1 <0>        -0.7653
     33 H1          1.0030    1.8812   -0.0221 H         1 <0>         0.0670
     34 H2         -0.5474    1.8583   -0.8963 H         1 <0>         0.0735
     35 H3         -0.5292    1.8632    0.8836 H         1 <0>         0.0622
     36 H4          0.5102   -0.3845   -0.9008 H         1 <0>         0.1023
     37 H5         -1.6620   -0.2357    2.1097 H         1 <0>         0.1278
     38 H6         -3.9714   -1.0849    2.1418 H         1 <0>         0.1331
     39 H7         -1.4453   -0.9512   -2.0897 H         1 <0>         0.1364
     40 H8         -5.9776   -3.8688   -0.6222 H         1 <0>         0.0653
     41 H9         -4.6878   -3.9165    0.6073 H         1 <0>         0.0770
     42 H10        -6.9799   -4.5554    1.4933 H         1 <0>         0.1010
     43 H11        -6.2329   -3.1795    2.3420 H         1 <0>         0.0514
     44 H12        -8.3908   -0.7503    0.7432 H         1 <0>         0.1020
     45 H13        -7.0565   -0.9584    1.9042 H         1 <0>         0.0513
     46 H14        -6.1219   -0.0487   -0.1455 H         1 <0>         0.0780
     47 H15        -6.9289   -1.3031   -1.1216 H         1 <0>         0.0652
     48 H16         0.2128   -0.7366    1.9828 H         1 <0>         0.4045
     49 H17         2.5832   -0.4295    3.2276 H         1 <0>         0.1064
     50 H18         2.4383   -2.1049    2.6443 H         1 <0>         0.1065
     51 H19         4.5594   -0.8596    1.2564 H         1 <0>         0.4148
     52 H20         6.7349   -1.3599    1.9471 H         1 <0>         0.4207
     53 H21         5.9747   -3.3254    4.7587 H         1 <0>         0.1646
     54 H22         7.5440   -3.9079    6.5571 H         1 <0>         0.1402
     55 H23        10.3890   -1.1186    4.9656 H         1 <0>         0.1413
     56 H24         8.8162   -0.5494    3.1659 H         1 <0>         0.1516
     57 H25        11.4539   -1.6459    6.3525 H         1 <0>         0.4431
     58 H26         8.8092   -4.2384    7.8322 H         1 <0>         0.4438
     59 H27        10.2976   -4.0351    8.5846 H         1 <0>         0.4324
     60 H28        11.8282   -2.5348    7.7283 H         1 <0>         0.4324
@<TRIPOS>BOND
     1    1    2 1
     2    1   33 1
     3    1   34 1
     4    1   35 1
     5    2    3 1
     6    2   16 1
     7    2   36 1
     8    3    8 ar
     9    3    4 ar
    10    4    5 ar
    11    4   37 1
    12    5    6 ar
    13    5   38 1
    14    6    7 ar
    15    6   10 1
    16    7    8 ar
    17    7    9 1
    18    8   39 1
    19   10   15 1
    20   10   11 1
    21   11   12 1
    22   11   40 1
    23   11   41 1
    24   12   13 1
    25   12   42 1
    26   12   43 1
    27   13   14 1
    28   14   15 1
    29   14   44 1
    30   14   45 1
    31   15   46 1
    32   15   47 1
    33   16   17 am
    34   16   48 1
    35   17   18 2
    36   17   19 1
    37   19   20 1
    38   19   49 1
    39   19   50 1
    40   20   21 am
    41   20   51 1
    42   21   22 2
    43   21   23 am
    44   23   24 1
    45   23   52 1
    46   24   29 ar
    47   24   25 ar
    48   25   26 ar
    49   25   53 1
    50   26   27 ar
    51   26   54 1
    52   27   28 ar
    53   27   30 1
    54   28   29 ar
    55   28   55 1
    56   29   56 1
    57   30   31 2
    58   30   32 1
    59   31   57 1
    60   31   60 1
    61   32   58 1
    62   32   59 1
@<TRIPOS>MOLECULE
CHEMBL332753__1
   60    62     0     0     0
SMALL
USER_CHARGES

@<TRIPOS>ATOM
      1 C1         -0.0367    1.5475    0.0184 C.3       1 <0>        -0.1602
      2 C2         -0.0054    0.0179    0.0034 C.3       1 <0>         0.1878
      3 C3          0.7281   -0.4816    1.2214 C.ar      1 <0>        -0.0968
      4 C4          0.0778   -0.5459    2.4402 C.ar      1 <0>        -0.0944
      5 C5          0.7466   -1.0035    3.5586 C.ar      1 <0>        -0.1141
      6 C6          2.0742   -1.3995    3.4586 C.ar      1 <0>         0.2064
      7 C7          2.7250   -1.3337    2.2325 C.ar      1 <0>        -0.0944
      8 C8          2.0481   -0.8798    1.1165 C.ar      1 <0>        -0.0726
      9 Br1         4.5325   -1.8708    2.0900 Br        1 <0>        -0.0329
     10 N1          2.7538   -1.8625    4.5882 N.pl3     1 <0>        -0.6792
     11 C9          3.4880   -0.9350    5.4635 C.3       1 <0>         0.1110
     12 C10         3.0507   -1.1879    6.9109 C.3       1 <0>         0.0468
     13 O1          3.1844   -2.5802    7.2066 O.3       1 <0>        -0.3780
     14 C11         2.3545   -3.4298    6.4109 C.3       1 <0>         0.0470
     15 C12         2.7514   -3.2911    4.9411 C.3       1 <0>         0.1114
     16 N2         -1.3763   -0.4987    0.0130 N.am      1 <0>        -0.7167
     17 C13        -2.0551   -0.6299   -1.1439 C.2       1 <0>         0.5121
     18 O2         -1.5311   -0.3204   -2.1929 O.2       1 <0>        -0.5319
     19 C14        -3.4653   -1.1613   -1.1340 C.3       1 <0>         0.1159
     20 N3         -3.9793   -1.2076   -2.5051 N.am      1 <0>        -0.7201
     21 C15        -5.2295   -1.6524   -2.7414 C.2       1 <0>         0.7105
     22 O3         -5.9306   -2.0152   -1.8167 O.2       1 <0>        -0.5656
     23 N4         -5.7024   -1.6950   -4.0027 N.am      1 <0>        -0.6838
     24 C16        -6.9588   -2.2442   -4.2583 C.ar      1 <0>         0.2463
     25 C17        -7.9893   -2.0771   -3.3390 C.ar      1 <0>        -0.1244
     26 C18        -9.2306   -2.6184   -3.5882 C.ar      1 <0>        -0.0328
     27 C19        -9.4546   -3.3355   -4.7658 C.ar      1 <0>        -0.1852
     28 C20        -8.4179   -3.5011   -5.6872 C.ar      1 <0>        -0.0306
     29 C21        -7.1802   -2.9530   -5.4347 C.ar      1 <0>        -0.1493
     30 C22       -10.7851   -3.9180   -5.0360 C.cat     1 <0>         0.6033
     31 N5        -10.9973   -4.6018   -6.1599 N.pl3     1 <0>        -0.7663
     32 N6        -11.7730   -3.7596   -4.1560 N.pl3     1 <0>        -0.7652
     33 H1          0.9833    1.9318    0.0113 H         1 <0>         0.0735
     34 H2         -0.5673    1.9087   -0.8625 H         1 <0>         0.0671
     35 H3         -0.5483    1.8916    0.9172 H         1 <0>         0.0623
     36 H4          0.5062   -0.3263   -0.8954 H         1 <0>         0.1023
     37 H5         -0.9543   -0.2376    2.5177 H         1 <0>         0.1278
     38 H6          0.2380   -1.0530    4.5100 H         1 <0>         0.1331
     39 H7          2.5516   -0.8325    0.1622 H         1 <0>         0.1363
     40 H8          4.5595   -1.1104    5.3678 H         1 <0>         0.0656
     41 H9          3.2574    0.0931    5.1847 H         1 <0>         0.0781
     42 H10         3.6800   -0.6099    7.5876 H         1 <0>         0.1017
     43 H11         2.0102   -0.8877    7.0346 H         1 <0>         0.0517
     44 H12         2.4830   -4.4648    6.7279 H         1 <0>         0.1013
     45 H13         1.3115   -3.1378    6.5327 H         1 <0>         0.0510
     46 H14         2.0334   -3.8223    4.3163 H         1 <0>         0.0769
     47 H15         3.7476   -3.7077    4.7918 H         1 <0>         0.0649
     48 H16        -1.7954   -0.7462    0.8520 H         1 <0>         0.4045
     49 H17        -3.4724   -2.1651   -0.7092 H         1 <0>         0.1062
     50 H18        -4.0958   -0.5074   -0.5315 H         1 <0>         0.1067
     51 H19        -3.4200   -0.9182   -3.2428 H         1 <0>         0.4148
     52 H20        -5.1690   -1.3438   -4.7328 H         1 <0>         0.4207
     53 H21        -7.8156   -1.5226   -2.4286 H         1 <0>         0.1646
     54 H22       -10.0301   -2.4890   -2.8737 H         1 <0>         0.1403
     55 H23        -8.5880   -4.0550   -6.5986 H         1 <0>         0.1413
     56 H24        -6.3794   -3.0772   -6.1485 H         1 <0>         0.1516
     57 H25       -10.2781   -4.7172   -6.8005 H         1 <0>         0.4431
     58 H26       -11.6186   -3.2618   -3.3379 H         1 <0>         0.4438
     59 H27       -12.6466   -4.1420   -4.3334 H         1 <0>         0.4324
     60 H28       -11.8708   -4.9843   -6.3373 H         1 <0>         0.4324
@<TRIPOS>BOND
     1    1    2 1
     2    1   33 1
     3    1   34 1
     4    1   35 1
     5    2    3 1
     6    2   16 1
     7    2   36 1
     8    3    8 ar
     9    3    4 ar
    10    4    5 ar
    11    4   37 1
    12    5    6 ar
    13    5   38 1
    14    6    7 ar
    15    6   10 1
    16    7    8 ar
    17    7    9 1
    18    8   39 1
    19   10   15 1
    20   10   11 1
    21   11   12 1
    22   11   40 1
    23   11   41 1
    24   12   13 1
    25   12   42 1
    26   12   43 1
    27   13   14 1
    28   14   15 1
    29   14   44 1
    30   14   45 1
    31   15   46 1
    32   15   47 1
    33   16   17 am
    34   16   48 1
    35   17   18 2
    36   17   19 1
    37   19   20 1
    38   19   49 1
    39   19   50 1
    40   20   21 am
    41   20   51 1
    42   21   22 2
    43   21   23 am
    44   23   24 1
    45   23   52 1
    46   24   29 ar
    47   24   25 ar
    48   25   26 ar
    49   25   53 1
    50   26   27 ar
    51   26   54 1
    52   27   28 ar
    53   27   30 1
    54   28   29 ar
    55   28   55 1
    56   29   56 1
    57   30   31 2
    58   30   32 1
    59   31   57 1
    60   31   60 1
    61   32   58 1
    62   32   59 1
@<TRIPOS>MOLECULE
CHEMBL339880
   67    69     0     0     0
SMALL
USER_CHARGES

@<TRIPOS>ATOM
      1 C1         -0.9114    1.1745    0.8417 C.3       1 <0>        -0.1612
      2 C2         -0.9341   -0.3443    1.0252 C.3       1 <0>         0.1853
      3 C3         -1.0956   -1.0101   -0.3171 C.ar      1 <0>        -0.1014
      4 C4         -2.3464   -1.0906   -0.9013 C.ar      1 <0>        -0.0939
      5 C5         -2.4977   -1.7002   -2.1313 C.ar      1 <0>        -0.1124
      6 C6         -1.3920   -2.2321   -2.7817 C.ar      1 <0>         0.1373
      7 C7         -0.1372   -2.1492   -2.1926 C.ar      1 <0>        -0.1339
      8 C8          0.0082   -1.5341   -0.9645 C.ar      1 <0>        -0.0833
      9 N1         -1.5420   -2.8507   -4.0278 N.am      1 <0>        -0.6680
     10 C9         -2.4688   -2.4003   -4.8965 C.2       1 <0>         0.5160
     11 O1         -3.1106   -1.4046   -4.6365 O.2       1 <0>        -0.5042
     12 C10        -2.7076   -3.1339   -6.1911 C.3       1 <0>        -0.1211
     13 C11        -1.4172   -3.1508   -7.0157 C.3       1 <0>        -0.1444
     14 C12        -1.6873   -3.8269   -8.3616 C.3       1 <0>        -0.0040
     15 N2         -2.7239   -3.0832   -9.0875 N.4       1 <0>        -0.5074
     16 C13        -3.9843   -3.1237   -8.3363 C.3       1 <0>        -0.0063
     17 C14        -3.8026   -2.4207   -6.9894 C.3       1 <0>        -0.1312
     18 N3         -2.0555   -0.7147    1.8921 N.am      1 <0>        -0.7184
     19 C15        -1.9101   -0.6847    3.2317 C.2       1 <0>         0.5120
     20 O2         -0.8510   -0.3510    3.7194 O.2       1 <0>        -0.5301
     21 C16        -3.0636   -1.0658    4.1235 C.3       1 <0>         0.1163
     22 N4         -2.6550   -0.9521    5.5257 N.am      1 <0>        -0.7213
     23 C17        -3.5298   -1.2448    6.5084 C.2       1 <0>         0.7103
     24 O3         -4.6580   -1.6033    6.2310 O.2       1 <0>        -0.5647
     25 N5         -3.1539   -1.1402    7.7984 N.am      1 <0>        -0.6832
     26 C18        -4.0207   -1.5472    8.8126 C.ar      1 <0>         0.2480
     27 C19        -4.8725   -2.6274    8.6057 C.ar      1 <0>        -0.1253
     28 C20        -5.7297   -3.0313    9.6048 C.ar      1 <0>        -0.0312
     29 C21        -5.7431   -2.3553   10.8271 C.ar      1 <0>        -0.1848
     30 C22        -4.8863   -1.2712   11.0319 C.ar      1 <0>        -0.0285
     31 C23        -4.0277   -0.8755   10.0308 C.ar      1 <0>        -0.1497
     32 C24        -6.6619   -2.7857   11.9009 C.cat     1 <0>         0.6030
     33 N6         -6.6735   -2.1399   13.0664 N.pl3     1 <0>        -0.7653
     34 N7         -7.4789   -3.8197   11.7040 N.pl3     1 <0>        -0.7652
     35 H1         -0.0771    1.4502    0.1966 H         1 <0>         0.0725
     36 H2         -1.8464    1.4993    0.3851 H         1 <0>         0.0615
     37 H3         -0.7946    1.6561    1.8125 H         1 <0>         0.0680
     38 H4          0.0009   -0.6691    1.4817 H         1 <0>         0.1022
     39 H5         -3.2059   -0.6767   -0.3949 H         1 <0>         0.1271
     40 H6         -3.4749   -1.7634   -2.5867 H         1 <0>         0.1353
     41 H7          0.7246   -2.5623   -2.6957 H         1 <0>         0.1306
     42 H8          0.9845   -1.4657   -0.5077 H         1 <0>         0.1343
     43 H9         -0.9790   -3.6038   -4.2663 H         1 <0>         0.4121
     44 H10        -3.0190   -4.1566   -5.9784 H         1 <0>         0.1208
     45 H11        -1.0790   -2.1283   -7.1833 H         1 <0>         0.0982
     46 H12        -0.6486   -3.7055   -6.4775 H         1 <0>         0.1168
     47 H13        -0.7706   -3.8408   -8.9511 H         1 <0>         0.1401
     48 H14        -2.0252   -4.8493   -8.1928 H         1 <0>         0.1351
     49 H15        -2.4315   -2.1241   -9.2004 H         1 <0>         0.4302
     50 H16        -4.7634   -2.6185   -8.9072 H         1 <0>         0.1402
     51 H17        -4.2732   -4.1612   -8.1681 H         1 <0>         0.1334
     52 H18        -4.7390   -2.4534   -6.4325 H         1 <0>         0.1209
     53 H19        -3.5139   -1.3830   -7.1565 H         1 <0>         0.0998
     54 H20        -2.9025   -0.9816    1.5020 H         1 <0>         0.4039
     55 H21        -3.9046   -0.3985    3.9348 H         1 <0>         0.1063
     56 H22        -3.3609   -2.0933    3.9138 H         1 <0>         0.1058
     57 H23        -1.7550   -0.6661    5.7470 H         1 <0>         0.4149
     58 H24        -2.2806   -0.7820    8.0216 H         1 <0>         0.4208
     59 H25        -4.8616   -3.1496    7.6605 H         1 <0>         0.1585
     60 H26        -6.3912   -3.8695    9.4434 H         1 <0>         0.1404
     61 H27        -4.8943   -0.7466   11.9759 H         1 <0>         0.1422
     62 H28        -3.3621   -0.0400   10.1899 H         1 <0>         0.1520
     63 H29        -6.0787   -1.3872   13.2098 H         1 <0>         0.4433
     64 H30        -7.4704   -4.2898   10.8555 H         1 <0>         0.4434
     65 H31        -8.0822   -4.1023   12.4090 H         1 <0>         0.4329
     66 H32        -7.2768   -2.4225   13.7715 H         1 <0>         0.4330
     67 H33        -2.8614   -3.4999   -9.9961 H         1 <0>         0.4357
@<TRIPOS>BOND
     1    1    2 1
     2    1   35 1
     3    1   36 1
     4    1   37 1
     5    2    3 1
     6    2   18 1
     7    2   38 1
     8    3    8 ar
     9    3    4 ar
    10    4    5 ar
    11    4   39 1
    12    5    6 ar
    13    5   40 1
    14    6    7 ar
    15    6    9 1
    16    7    8 ar
    17    7   41 1
    18    8   42 1
    19    9   10 am
    20    9   43 1
    21   10   11 2
    22   10   12 1
    23   12   17 1
    24   12   13 1
    25   12   44 1
    26   13   14 1
    27   13   45 1
    28   13   46 1
    29   14   15 1
    30   14   47 1
    31   14   48 1
    32   15   16 1
    33   15   49 1
    34   15   67 1
    35   16   17 1
    36   16   50 1
    37   16   51 1
    38   17   52 1
    39   17   53 1
    40   18   19 am
    41   18   54 1
    42   19   20 2
    43   19   21 1
    44   21   22 1
    45   21   55 1
    46   21   56 1
    47   22   23 am
    48   22   57 1
    49   23   24 2
    50   23   25 am
    51   25   26 1
    52   25   58 1
    53   26   31 ar
    54   26   27 ar
    55   27   28 ar
    56   27   59 1
    57   28   29 ar
    58   28   60 1
    59   29   30 ar
    60   29   32 1
    61   30   31 ar
    62   30   61 1
    63   31   62 1
    64   32   33 2
    65   32   34 1
    66   33   63 1
    67   33   66 1
    68   34   64 1
    69   34   65 1
@<TRIPOS>MOLECULE
CHEMBL339880__1
   67    69     0     0     0
SMALL
USER_CHARGES

@<TRIPOS>ATOM
      1 C1          0.4404    1.3282   -0.0175 C.3       1 <0>        -0.1609
      2 C2          1.1068   -0.0481   -0.0679 C.3       1 <0>         0.1851
      3 C3          0.1417   -1.0529   -0.6423 C.ar      1 <0>        -0.1013
      4 C4         -0.0375   -1.1330   -2.0111 C.ar      1 <0>        -0.0940
      5 C5         -0.9213   -2.0528   -2.5407 C.ar      1 <0>        -0.1122
      6 C6         -1.6301   -2.8979   -1.6970 C.ar      1 <0>         0.1371
      7 C7         -1.4476   -2.8152   -0.3228 C.ar      1 <0>        -0.1336
      8 C8         -0.5587   -1.8966    0.2002 C.ar      1 <0>        -0.0834
      9 N1         -2.5266   -3.8305   -2.2303 N.am      1 <0>        -0.6675
     10 C9         -2.2701   -4.4071   -3.4212 C.2       1 <0>         0.5166
     11 O1         -1.2208   -4.1867   -3.9883 O.2       1 <0>        -0.5060
     12 C10        -3.2869   -5.3258   -4.0482 C.3       1 <0>        -0.1216
     13 C11        -3.5443   -6.5153   -3.1187 C.3       1 <0>        -0.1442
     14 C12        -4.5168   -7.4836   -3.7957 C.3       1 <0>        -0.0043
     15 N2         -3.9377   -7.9623   -5.0567 N.4       1 <0>        -0.5073
     16 C13        -3.7548   -6.8361   -5.9801 C.3       1 <0>        -0.0065
     17 C14        -2.7530   -5.8430   -5.3871 C.3       1 <0>        -0.1307
     18 N3          2.3022    0.0187   -0.9121 N.am      1 <0>        -0.7185
     19 C15         3.4756    0.4247   -0.3880 C.2       1 <0>         0.5119
     20 O2          3.5419    0.7346    0.7827 O.2       1 <0>        -0.5302
     21 C16         4.7053    0.4934   -1.2565 C.3       1 <0>         0.1163
     22 N4          5.8416    0.9597   -0.4580 N.am      1 <0>        -0.7212
     23 C17         7.0544    1.0993   -1.0291 C.2       1 <0>         0.7103
     24 O3          7.2053    0.8383   -2.2069 O.2       1 <0>        -0.5648
     25 N5          8.0998    1.5282   -0.2945 N.am      1 <0>        -0.6832
     26 C18         9.3274    1.7778   -0.9078 C.ar      1 <0>         0.2481
     27 C19         9.3662    2.2752   -2.2064 C.ar      1 <0>        -0.1252
     28 C20        10.5765    2.5222   -2.8147 C.ar      1 <0>        -0.0311
     29 C21        11.7662    2.2731   -2.1264 C.ar      1 <0>        -0.1848
     30 C22        11.7239    1.7741   -0.8224 C.ar      1 <0>        -0.0286
     31 C23        10.5104    1.5341   -0.2176 C.ar      1 <0>        -0.1500
     32 C24        13.0665    2.5366   -2.7763 C.cat     1 <0>         0.6030
     33 N6         14.2005    2.2985   -2.1184 N.pl3     1 <0>        -0.7654
     34 N7         13.1052    3.0122   -4.0204 N.pl3     1 <0>        -0.7650
     35 H1          1.1385    2.0549    0.3980 H         1 <0>         0.0680
     36 H2          0.1569    1.6317   -1.0253 H         1 <0>         0.0615
     37 H3         -0.4490    1.2784    0.6107 H         1 <0>         0.0730
     38 H4          1.3903   -0.3516    0.9399 H         1 <0>         0.1020
     39 H5          0.5140   -0.4755   -2.6667 H         1 <0>         0.1269
     40 H6         -1.0613   -2.1144   -3.6098 H         1 <0>         0.1354
     41 H7         -1.9976   -3.4709    0.3360 H         1 <0>         0.1307
     42 H8         -0.4133   -1.8346    1.2686 H         1 <0>         0.1344
     43 H9         -3.3326   -4.0621   -1.7430 H         1 <0>         0.4124
     44 H10        -4.2172   -4.7820   -4.2123 H         1 <0>         0.1214
     45 H11        -2.6041   -7.0274   -2.9140 H         1 <0>         0.0976
     46 H12        -3.9768   -6.1596   -2.1835 H         1 <0>         0.1170
     47 H13        -4.7024   -8.3316   -3.1365 H         1 <0>         0.1401
     48 H14        -5.4566   -6.9705   -3.9997 H         1 <0>         0.1355
     49 H15        -3.0444   -8.3938   -4.8729 H         1 <0>         0.4297
     50 H16        -3.3779   -7.2062   -6.9335 H         1 <0>         0.1400
     51 H17        -4.7109   -6.3369   -6.1375 H         1 <0>         0.1339
     52 H18        -2.6199   -5.0067   -6.0734 H         1 <0>         0.1210
     53 H19        -1.7964   -6.3412   -5.2295 H         1 <0>         0.0992
     54 H20         2.2491   -0.2291   -1.8484 H         1 <0>         0.4039
     55 H21         4.9238   -0.4969   -1.6559 H         1 <0>         0.1055
     56 H22         4.5306    1.1866   -2.0793 H         1 <0>         0.1064
     57 H23         5.7212    1.1679    0.4817 H         1 <0>         0.4149
     58 H24         7.9985    1.6634    0.6606 H         1 <0>         0.4208
     59 H25         8.4460    2.4676   -2.7381 H         1 <0>         0.1587
     60 H26        10.6060    2.9077   -3.8231 H         1 <0>         0.1406
     61 H27        12.6421    1.5806   -0.2876 H         1 <0>         0.1421
     62 H28        10.4770    1.1521    0.7920 H         1 <0>         0.1518
     63 H29        14.1723    1.9523   -1.2127 H         1 <0>         0.4433
     64 H30        12.2797    3.1855   -4.4993 H         1 <0>         0.4435
     65 H31        13.9590    3.1852   -4.4472 H         1 <0>         0.4330
     66 H32        15.0543    2.4715   -2.5451 H         1 <0>         0.4330
     67 H33        -4.5572   -8.6408   -5.4738 H         1 <0>         0.4357
@<TRIPOS>BOND
     1    1    2 1
     2    1   35 1
     3    1   36 1
     4    1   37 1
     5    2    3 1
     6    2   18 1
     7    2   38 1
     8    3    8 ar
     9    3    4 ar
    10    4    5 ar
    11    4   39 1
    12    5    6 ar
    13    5   40 1
    14    6    7 ar
    15    6    9 1
    16    7    8 ar
    17    7   41 1
    18    8   42 1
    19    9   10 am
    20    9   43 1
    21   10   11 2
    22   10   12 1
    23   12   17 1
    24   12   13 1
    25   12   44 1
    26   13   14 1
    27   13   45 1
    28   13   46 1
    29   14   15 1
    30   14   47 1
    31   14   48 1
    32   15   16 1
    33   15   49 1
    34   15   67 1
    35   16   17 1
    36   16   50 1
    37   16   51 1
    38   17   52 1
    39   17   53 1
    40   18   19 am
    41   18   54 1
    42   19   20 2
    43   19   21 1
    44   21   22 1
    45   21   55 1
    46   21   56 1
    47   22   23 am
    48   22   57 1
    49   23   24 2
    50   23   25 am
    51   25   26 1
    52   25   58 1
    53   26   31 ar
    54   26   27 ar
    55   27   28 ar
    56   27   59 1
    57   28   29 ar
    58   28   60 1
    59   29   30 ar
    60   29   32 1
    61   30   31 ar
    62   30   61 1
    63   31   62 1
    64   32   33 2
    65   32   34 1
    66   33   63 1
    67   33   66 1
    68   34   64 1
    69   34   65 1
@<TRIPOS>MOLECULE
CHEMBL382879
   55    58     0     0     0
SMALL
USER_CHARGES

@<TRIPOS>ATOM
      1 C1         -0.0167    1.3788    0.0096 C.ar      1 <0>        -0.1170
      2 C2          1.1677    2.0877    0.0021 C.ar      1 <0>        -0.0557
      3 C3          2.3837    1.4075   -0.0132 C.ar      1 <0>        -0.0110
      4 C4          2.3966    0.0137   -0.0208 C.ar      1 <0>        -0.0409
      5 C5          1.2065   -0.6847   -0.0132 C.ar      1 <0>        -0.0429
      6 C6          0.0021   -0.0041    0.0020 C.ar      1 <0>        -0.0640
      7 N1          1.2185   -2.1648   -0.0213 N.pl3     1 <0>         0.0340
      8 O1          2.2703   -2.7607   -0.0345 O.2       1 <0>        -0.1485
      9 O2          0.1765   -2.7778   -0.0146 O.3       1 <0>        -0.1672
     10 C7          3.6597    2.1638   -0.0218 C.ar      1 <0>        -0.0924
     11 C8          4.6671    1.8446    0.8869 C.ar      1 <0>        -0.0357
     12 C9          5.8567    2.5467    0.8812 C.ar      1 <0>        -0.0194
     13 C10         6.0596    3.5701   -0.0234 C.ar      1 <0>        -0.0701
     14 C11         5.0621    3.9033   -0.9402 C.ar      1 <0>        -0.0978
     15 C12         3.8568    3.1932   -0.9439 C.ar      1 <0>         0.1058
     16 O3          2.8825    3.5065   -1.8361 O.3       1 <0>        -0.4963
     17 C13         5.2804    4.9991   -1.9082 C.2       1 <0>         0.1772
     18 C14         5.9025    6.1724   -1.6337 C.2       1 <0>        -0.1821
     19 C15         5.8975    6.9548   -2.8696 C.ar      1 <0>        -0.1101
     20 C16         6.3778    8.2182   -3.2132 C.ar      1 <0>         0.0167
     21 C17         6.2073    8.6832   -4.5127 C.ar      1 <0>        -0.1999
     22 C18         5.5576    7.8855   -5.4642 C.ar      1 <0>        -0.0668
     23 C19         5.0866    6.6495   -5.1318 C.ar      1 <0>        -0.1106
     24 C20         5.2462    6.1622   -3.8364 C.ar      1 <0>         0.1486
     25 N2          4.8888    4.9822   -3.2271 N.pl3     1 <0>        -0.5587
     26 H1          4.4270    4.2483   -3.6619 H         1 <0>         0.4309
     27 C21         6.7114   10.0202   -4.8905 C.cat     1 <0>         0.6066
     28 N3          6.5484   10.4663   -6.1351 N.pl3     1 <0>        -0.7740
     29 N4          7.3287   10.7793   -3.9863 N.pl3     1 <0>        -0.7717
     30 C22         6.9394    2.1940    1.8683 C.3       1 <0>        -0.1087
     31 C23         7.3646    0.7390    1.6606 C.3       1 <0>        -0.1540
     32 C24         8.5297    0.4225    2.5625 C.2       1 <0>         0.4887
     33 O4          8.9783    1.2811    3.3029 O.co2     1 <0>        -0.6686
     34 O5          9.0237   -0.6921    2.5519 O.co2     1 <0>        -0.7259
     35 C25         6.4168    2.3692    3.2709 C.2       1 <0>         0.5276
     36 O6          5.4533    1.7240    3.6476 O.co2     1 <0>        -0.7112
     37 O7          6.9577    3.1561    4.0291 O.co2     1 <0>        -0.6784
     38 H2         -0.9597    1.9050    0.0260 H         1 <0>         0.1456
     39 H3          1.1519    3.1676    0.0077 H         1 <0>         0.1350
     40 H4          3.3362   -0.5186   -0.0330 H         1 <0>         0.1585
     41 H5         -0.9270   -0.5547    0.0083 H         1 <0>         0.1505
     42 H6          4.5170    1.0460    1.5983 H         1 <0>         0.1532
     43 H7          6.9925    4.1143   -0.0209 H         1 <0>         0.1341
     44 H8          2.2608    4.1765   -1.5205 H         1 <0>         0.3794
     45 H9          6.3210    6.4720   -0.6842 H         1 <0>         0.1662
     46 H10         6.8773    8.8301   -2.4767 H         1 <0>         0.1368
     47 H11         5.4282    8.2535   -6.4713 H         1 <0>         0.1317
     48 H12         4.5880    6.0460   -5.8758 H         1 <0>         0.1395
     49 H13         6.0989    9.9136   -6.7935 H         1 <0>         0.4416
     50 H14         7.4474   10.4545   -3.0800 H         1 <0>         0.4441
     51 H15         7.6595   11.6568   -4.2342 H         1 <0>         0.4280
     52 H16         7.7974    2.8486    1.7158 H         1 <0>         0.0734
     53 H17         6.5306    0.0791    1.8993 H         1 <0>         0.0598
     54 H18         7.6590    0.5913    0.6215 H         1 <0>         0.0390
     55 H19         6.8792   11.3438   -6.3831 H         1 <0>         0.4272
@<TRIPOS>BOND
     1    1    6 ar
     2    1    2 ar
     3    1   38 1
     4    2    3 ar
     5    2   39 1
     6    3    4 ar
     7    3   10 1
     8    4    5 ar
     9    4   40 1
    10    5    6 ar
    11    5    7 1
    12    6   41 1
    13    7    8 2
    14    7    9 1
    15   10   15 ar
    16   10   11 ar
    17   11   12 ar
    18   11   42 1
    19   12   13 ar
    20   12   30 1
    21   13   14 ar
    22   13   43 1
    23   14   15 ar
    24   14   17 1
    25   15   16 1
    26   16   44 1
    27   17   25 1
    28   17   18 2
    29   18   19 1
    30   18   45 1
    31   19   24 ar
    32   19   20 ar
    33   20   21 ar
    34   20   46 1
    35   21   22 ar
    36   21   27 1
    37   22   23 ar
    38   22   47 1
    39   23   24 ar
    40   23   48 1
    41   24   25 1
    42   25   26 1
    43   27   28 2
    44   27   29 1
    45   28   49 1
    46   28   55 1
    47   29   50 1
    48   29   51 1
    49   30   31 1
    50   30   35 1
    51   30   52 1
    52   31   32 1
    53   31   53 1
    54   31   54 1
    55   32   33 2
    56   32   34 1
    57   35   36 2
    58   35   37 1
@<TRIPOS>MOLECULE
CHEMBL382879__1
   55    58     0     0     0
SMALL
USER_CHARGES

@<TRIPOS>ATOM
      1 C1         -0.0167    1.3788    0.0096 C.ar      1 <0>        -0.1194
      2 C2          1.1677    2.0877    0.0021 C.ar      1 <0>        -0.0582
      3 C3          2.3837    1.4075   -0.0132 C.ar      1 <0>        -0.0134
      4 C4          2.3966    0.0137   -0.0208 C.ar      1 <0>        -0.0388
      5 C5          1.2065   -0.6847   -0.0132 C.ar      1 <0>        -0.0436
      6 C6          0.0021   -0.0041    0.0020 C.ar      1 <0>        -0.0648
      7 N1          1.2185   -2.1648   -0.0213 N.pl3     1 <0>         0.0324
      8 O1          2.2703   -2.7607   -0.0345 O.2       1 <0>        -0.1431
      9 O2          0.1765   -2.7778   -0.0146 O.3       1 <0>        -0.1699
     10 C7          3.6597    2.1638   -0.0218 C.ar      1 <0>        -0.0929
     11 C8          4.6671    1.8446    0.8869 C.ar      1 <0>        -0.0183
     12 C9          5.8567    2.5467    0.8812 C.ar      1 <0>        -0.0015
     13 C10         6.0596    3.5701   -0.0234 C.ar      1 <0>        -0.0728
     14 C11         5.0621    3.9033   -0.9402 C.ar      1 <0>        -0.0994
     15 C12         3.8568    3.1932   -0.9439 C.ar      1 <0>         0.1057
     16 O3          2.8825    3.5065   -1.8361 O.3       1 <0>        -0.4955
     17 C13         5.2804    4.9991   -1.9082 C.2       1 <0>         0.1813
     18 C14         5.9025    6.1724   -1.6337 C.2       1 <0>        -0.1863
     19 C15         5.8975    6.9548   -2.8696 C.ar      1 <0>        -0.1096
     20 C16         6.3778    8.2182   -3.2132 C.ar      1 <0>         0.0156
     21 C17         6.2073    8.6832   -4.5127 C.ar      1 <0>        -0.2000
     22 C18         5.5576    7.8855   -5.4642 C.ar      1 <0>        -0.0674
     23 C19         5.0866    6.6495   -5.1318 C.ar      1 <0>        -0.1101
     24 C20         5.2462    6.1622   -3.8364 C.ar      1 <0>         0.1485
     25 N2          4.8888    4.9822   -3.2271 N.pl3     1 <0>        -0.5582
     26 H1          4.4270    4.2483   -3.6619 H         1 <0>         0.4316
     27 C21         6.7114   10.0202   -4.8905 C.cat     1 <0>         0.6066
     28 N3          6.5484   10.4663   -6.1351 N.pl3     1 <0>        -0.7740
     29 N4          7.3287   10.7793   -3.9863 N.pl3     1 <0>        -0.7722
     30 C22         6.9394    2.1940    1.8683 C.3       1 <0>        -0.1145
     31 C23         6.4089    2.3719    3.2924 C.3       1 <0>        -0.1520
     32 C24         7.5254    2.1383    4.2772 C.2       1 <0>         0.4862
     33 O4          8.6419    1.8558    3.8772 O.co2     1 <0>        -0.6372
     34 O5          7.3121    2.2319    5.4740 O.co2     1 <0>        -0.7405
     35 C25         7.3583    0.7609    1.6637 C.2       1 <0>         0.4974
     36 O6          6.8269    0.0883    0.7966 O.co2     1 <0>        -0.7282
     37 O7          8.2285    0.2740    2.3652 O.co2     1 <0>        -0.6254
     38 H2         -0.9597    1.9050    0.0260 H         1 <0>         0.1447
     39 H3          1.1519    3.1676    0.0077 H         1 <0>         0.1344
     40 H4          3.3362   -0.5186   -0.0330 H         1 <0>         0.1646
     41 H5         -0.9270   -0.5547    0.0083 H         1 <0>         0.1498
     42 H6          4.5170    1.0460    1.5983 H         1 <0>         0.1346
     43 H7          6.9925    4.1143   -0.0209 H         1 <0>         0.1309
     44 H8          2.2608    4.1765   -1.5205 H         1 <0>         0.3771
     45 H9          6.3210    6.4720   -0.6842 H         1 <0>         0.1649
     46 H10         6.8773    8.8301   -2.4767 H         1 <0>         0.1362
     47 H11         5.4282    8.2535   -6.4713 H         1 <0>         0.1315
     48 H12         4.5880    6.0460   -5.8758 H         1 <0>         0.1396
     49 H13         6.0989    9.9136   -6.7935 H         1 <0>         0.4417
     50 H14         7.4474   10.4545   -3.0800 H         1 <0>         0.4438
     51 H15         7.6595   11.6568   -4.2342 H         1 <0>         0.4278
     52 H16         7.7974    2.8486    1.7158 H         1 <0>         0.0731
     53 H17         6.0240    3.3845    3.4128 H         1 <0>         0.0357
     54 H18         5.6082    1.6549    3.4740 H         1 <0>         0.0442
     55 H19         6.8792   11.3438   -6.3831 H         1 <0>         0.4271
@<TRIPOS>BOND
     1    1    6 ar
     2    1    2 ar
     3    1   38 1
     4    2    3 ar
     5    2   39 1
     6    3    4 ar
     7    3   10 1
     8    4    5 ar
     9    4   40 1
    10    5    6 ar
    11    5    7 1
    12    6   41 1
    13    7    8 2
    14    7    9 1
    15   10   15 ar
    16   10   11 ar
    17   11   12 ar
    18   11   42 1
    19   12   13 ar
    20   12   30 1
    21   13   14 ar
    22   13   43 1
    23   14   15 ar
    24   14   17 1
    25   15   16 1
    26   16   44 1
    27   17   25 1
    28   17   18 2
    29   18   19 1
    30   18   45 1
    31   19   24 ar
    32   19   20 ar
    33   20   21 ar
    34   20   46 1
    35   21   22 ar
    36   21   27 1
    37   22   23 ar
    38   22   47 1
    39   23   24 ar
    40   23   48 1
    41   24   25 1
    42   25   26 1
    43   27   28 2
    44   27   29 1
    45   28   49 1
    46   28   55 1
    47   29   50 1
    48   29   51 1
    49   30   31 1
    50   30   35 1
    51   30   52 1
    52   31   32 1
    53   31   53 1
    54   31   54 1
    55   32   33 2
    56   32   34 1
    57   35   36 2
    58   35   37 1
@<TRIPOS>MOLECULE
CHEMBL383717
   70    73     0     0     0
SMALL
USER_CHARGES

@<TRIPOS>ATOM
      1 C1         -2.6792    2.8070   -0.7079 C.3       1 <0>        -0.1619
      2 C2         -1.8312    1.5400   -0.8356 C.3       1 <0>         0.1646
      3 C3         -0.5453    1.7028   -0.0226 C.3       1 <0>        -0.1678
      4 N1         -2.5878    0.3927   -0.3282 N.pl3     1 <0>        -0.6534
      5 C4         -2.7914   -0.7234   -1.1407 C.ar      1 <0>         0.2199
      6 C5         -3.9063   -0.8063   -1.9741 C.ar      1 <0>         0.0353
      7 C6         -4.0741   -1.9308   -2.7671 C.ar      1 <0>         0.2935
      8 N2         -3.1916   -2.9180   -2.7389 N.ar      1 <0>        -0.5359
      9 C7         -2.1211   -2.8745   -1.9603 C.ar      1 <0>         0.3236
     10 C8         -1.8820   -1.7803   -1.1433 C.ar      1 <0>         0.0545
     11 F1         -0.7848   -1.7408   -0.3561 F         1 <0>        -0.0888
     12 O1         -1.2450   -3.9117   -1.9659 O.3       1 <0>        -0.1591
     13 C9         -1.4365   -4.9016   -2.8718 C.ar      1 <0>         0.1251
     14 C10        -2.1313   -4.6443   -4.0461 C.ar      1 <0>        -0.1802
     15 C11        -2.3286   -5.6476   -4.9693 C.ar      1 <0>        -0.0919
     16 C12        -1.8312   -6.9316   -4.7324 C.ar      1 <0>        -0.0924
     17 C13        -1.1343   -7.2031   -3.5619 C.ar      1 <0>        -0.0155
     18 C14        -0.9274   -6.1870   -2.6265 C.ar      1 <0>        -0.1321
     19 C15        -0.1848   -6.4639   -1.3862 C.2       1 <0>         0.5158
     20 O2          0.2574   -7.5849   -1.1753 O.co2     1 <0>        -0.6762
     21 O3         -0.0099   -5.5730   -0.5662 O.co2     1 <0>        -0.6622
     22 C16        -2.0480   -8.0059   -5.7314 C.ar      1 <0>         0.1900
     23 C17        -2.6506   -7.7040   -6.9513 C.ar      1 <0>        -0.1804
     24 C18        -2.8458   -8.7168   -7.8737 C.ar      1 <0>        -0.0762
     25 C19        -2.4317  -10.0005   -7.5458 C.ar      1 <0>        -0.1859
     26 C20        -1.8407  -10.2292   -6.3174 C.ar      1 <0>         0.1148
     27 N3         -1.6619   -9.2456   -5.4588 N.ar      1 <0>        -0.4718
     28 O4         -5.1561   -2.0214   -3.5822 O.3       1 <0>        -0.2157
     29 C21        -5.3658   -3.1941   -4.2362 C.ar      1 <0>         0.1042
     30 C22        -4.7862   -4.3648   -3.7652 C.ar      1 <0>        -0.0810
     31 C23        -4.9958   -5.5602   -4.4269 C.ar      1 <0>        -0.0799
     32 C24        -5.7831   -5.5978   -5.5600 C.ar      1 <0>        -0.0794
     33 C25        -6.3699   -4.4268   -6.0403 C.ar      1 <0>        -0.1470
     34 C26        -6.1620   -3.2222   -5.3690 C.ar      1 <0>        -0.0812
     35 C27        -7.2145   -4.4637   -7.2548 C.cat     1 <0>         0.6095
     36 N4         -6.9747   -5.3646   -8.2054 N.pl3     1 <0>        -0.7602
     37 N5         -8.2143   -3.5960   -7.3970 N.pl3     1 <0>        -0.7612
     38 F2         -4.8114    0.1961   -2.0080 F         1 <0>        -0.1066
     39 C28        -3.1307    0.4172    1.0323 C.3       1 <0>         0.1631
     40 C29        -4.6594    0.3959    0.9718 C.3       1 <0>        -0.1663
     41 C30        -2.6336   -0.8082    1.8019 C.3       1 <0>        -0.1706
     42 H1         -2.0868    3.6722   -1.0057 H         1 <0>         0.0651
     43 H2         -3.5536    2.7256   -1.3536 H         1 <0>         0.0584
     44 H3         -3.0012    2.9259    0.3266 H         1 <0>         0.0608
     45 H4         -1.5801    1.3749   -1.8834 H         1 <0>         0.0765
     46 H5         -0.7923    1.7808    1.0361 H         1 <0>         0.0604
     47 H6          0.0979    0.8375   -0.1829 H         1 <0>         0.0629
     48 H7         -0.0254    2.6060   -0.3420 H         1 <0>         0.0643
     49 H8         -2.5187   -3.6542   -4.2362 H         1 <0>         0.1534
     50 H9         -2.8706   -5.4407   -5.8803 H         1 <0>         0.1189
     51 H10        -0.7501   -8.1955   -3.3777 H         1 <0>         0.1530
     52 H11        -2.9610   -6.6937   -7.1735 H         1 <0>         0.1298
     53 H12        -3.3103   -8.5132   -8.8272 H         1 <0>         0.1299
     54 H13        -2.5702  -10.8129   -8.2438 H         1 <0>         0.1338
     55 H14        -1.5175  -11.2269   -6.0593 H         1 <0>         0.1589
     56 H15        -4.1693   -4.3412   -2.8791 H         1 <0>         0.1892
     57 H16        -4.5419   -6.4674   -4.0563 H         1 <0>         0.1532
     58 H17        -5.9446   -6.5334   -6.0747 H         1 <0>         0.1396
     59 H18        -6.6170   -2.3132   -5.7339 H         1 <0>         0.1457
     60 H19        -6.2463   -5.9967   -8.1018 H         1 <0>         0.4466
     61 H20        -8.3890   -2.9396   -6.7045 H         1 <0>         0.4466
     62 H21        -8.7679   -3.6202   -8.1932 H         1 <0>         0.4309
     63 H22        -2.7998    1.3236    1.5393 H         1 <0>         0.0933
     64 H23        -4.9930   -0.5506    0.5466 H         1 <0>         0.0501
     65 H24        -5.0643    0.5050    1.9779 H         1 <0>         0.0646
     66 H25        -5.0098    1.2181    0.3479 H         1 <0>         0.0625
     67 H26        -2.8931   -1.7126    1.2517 H         1 <0>         0.0525
     68 H27        -1.5512   -0.7506    1.9167 H         1 <0>         0.0673
     69 H28        -3.1025   -0.8342    2.7856 H         1 <0>         0.0670
     70 H29        -7.5283   -5.3888   -9.0015 H         1 <0>         0.4314
@<TRIPOS>BOND
     1    1    2 1
     2    1   42 1
     3    1   43 1
     4    1   44 1
     5    2    3 1
     6    2    4 1
     7    2   45 1
     8    3   46 1
     9    3   47 1
    10    3   48 1
    11    4    5 1
    12    4   39 1
    13    5   10 ar
    14    5    6 ar
    15    6    7 ar
    16    6   38 1
    17    7    8 ar
    18    7   28 1
    19    8    9 ar
    20    9   10 ar
    21    9   12 1
    22   10   11 1
    23   12   13 1
    24   13   18 ar
    25   13   14 ar
    26   14   15 ar
    27   14   49 1
    28   15   16 ar
    29   15   50 1
    30   16   17 ar
    31   16   22 1
    32   17   18 ar
    33   17   51 1
    34   18   19 1
    35   19   20 2
    36   19   21 1
    37   22   27 ar
    38   22   23 ar
    39   23   24 ar
    40   23   52 1
    41   24   25 ar
    42   24   53 1
    43   25   26 ar
    44   25   54 1
    45   26   27 ar
    46   26   55 1
    47   28   29 1
    48   29   34 ar
    49   29   30 ar
    50   30   31 ar
    51   30   56 1
    52   31   32 ar
    53   31   57 1
    54   32   33 ar
    55   32   58 1
    56   33   34 ar
    57   33   35 1
    58   34   59 1
    59   35   36 2
    60   35   37 1
    61   36   60 1
    62   36   70 1
    63   37   61 1
    64   37   62 1
    65   39   40 1
    66   39   41 1
    67   39   63 1
    68   40   64 1
    69   40   65 1
    70   40   66 1
    71   41   67 1
    72   41   68 1
    73   41   69 1
@<TRIPOS>MOLECULE
CHEMBL195238
   66    70     0     0     0
SMALL
USER_CHARGES

@<TRIPOS>ATOM
      1 C1         -0.0976    1.7443    0.5372 C.ar      1 <0>        -0.1217
      2 C2          1.1181    2.3977    0.4594 C.ar      1 <0>        -0.1166
      3 C3          2.2880    1.6700    0.3469 C.ar      1 <0>        -0.1156
      4 C4          2.2422    0.2888    0.3126 C.ar      1 <0>        -0.0854
      5 C5          1.0266   -0.3646    0.3914 C.ar      1 <0>        -0.1181
      6 C6         -0.1434    0.3631    0.5025 C.ar      1 <0>        -0.1176
      7 C7          3.5175   -0.5045    0.1890 C.3       1 <0>        -0.0763
      8 C8          4.0640   -0.8125    1.5845 C.3       1 <0>        -0.1304
      9 C9          5.3587   -1.6179    1.4589 C.3       1 <0>         0.0942
     10 N1          5.8819   -1.9127    2.7951 N.am      1 <0>        -0.6013
     11 C10         5.4063   -3.0909    3.5245 C.3       1 <0>         0.1480
     12 C11         6.2823   -4.2724    3.1962 C.ar      1 <0>        -0.0928
     13 C12         5.9572   -5.0887    2.1144 C.ar      1 <0>        -0.0669
     14 C13         6.7271   -6.1637    1.7908 C.ar      1 <0>        -0.1164
     15 C14         7.8681   -6.4587    2.5555 C.ar      1 <0>        -0.0116
     16 C15         8.6840   -7.5623    2.2458 C.ar      1 <0>        -0.0809
     17 C16         9.7815   -7.8279    2.9990 C.ar      1 <0>        -0.0953
     18 C17        10.1202   -7.0117    4.0926 C.ar      1 <0>        -0.1602
     19 C18         9.3381   -5.9184    4.4226 C.ar      1 <0>        -0.0112
     20 C19         8.1994   -5.6282    3.6560 C.ar      1 <0>        -0.0674
     21 C20         7.3824   -4.5235    3.9569 C.ar      1 <0>        -0.0676
     22 C21        11.3215   -7.3241    4.8970 C.cat     1 <0>         0.6023
     23 N2         11.7298   -8.5856    5.0217 N.pl3     1 <0>        -0.7589
     24 N3         11.9947   -6.3439    5.4967 N.pl3     1 <0>        -0.7610
     25 C22         6.8009   -1.1001    3.3535 C.2       1 <0>         0.5730
     26 O1          7.2966   -1.3889    4.4256 O.2       1 <0>        -0.5283
     27 C23         7.2051    0.1391    2.6641 C.ar      1 <0>        -0.1183
     28 C24         7.7611    0.0862    1.3944 C.ar      1 <0>        -0.0815
     29 C25         8.1439    1.2500    0.7398 C.ar      1 <0>        -0.1262
     30 C26         7.9855    2.4719    1.3224 C.ar      1 <0>        -0.0763
     31 C27         7.4265    2.5733    2.6080 C.ar      1 <0>        -0.0541
     32 C28         7.0246    1.3985    3.2890 C.ar      1 <0>        -0.0144
     33 C29         6.4627    1.5013    4.5687 C.ar      1 <0>        -0.1096
     34 C30         6.3042    2.7282    5.1396 C.ar      1 <0>        -0.1031
     35 C31         6.6932    3.8856    4.4691 C.ar      1 <0>        -0.1117
     36 C32         7.2538    3.8221    3.2301 C.ar      1 <0>        -0.1024
     37 H1         -1.0112    2.3127    0.6297 H         1 <0>         0.1223
     38 H2          1.1539    3.4768    0.4862 H         1 <0>         0.1221
     39 H3          3.2377    2.1805    0.2854 H         1 <0>         0.1194
     40 H4          0.9908   -1.4437    0.3643 H         1 <0>         0.1196
     41 H5         -1.0931   -0.1474    0.5636 H         1 <0>         0.1222
     42 H6          3.3152   -1.4380   -0.3362 H         1 <0>         0.0741
     43 H7          4.2529    0.0745   -0.3696 H         1 <0>         0.0745
     44 H8          4.2663    0.1211    2.1096 H         1 <0>         0.0702
     45 H9          3.3286   -1.3915    2.1430 H         1 <0>         0.0689
     46 H10         5.1564   -2.5514    0.9338 H         1 <0>         0.0817
     47 H11         6.0941   -1.0388    0.9004 H         1 <0>         0.0946
     48 H12         5.4465   -2.8955    4.5961 H         1 <0>         0.0991
     49 H13         4.3788   -3.3083    3.2331 H         1 <0>         0.0968
     50 H14         5.0808   -4.8652    1.5241 H         1 <0>         0.1359
     51 H15         6.4617   -6.7874    0.9499 H         1 <0>         0.1418
     52 H16         8.4367   -8.1985    1.4088 H         1 <0>         0.1481
     53 H17        10.4024   -8.6773    2.7553 H         1 <0>         0.1367
     54 H18         9.6018   -5.2943    5.2637 H         1 <0>         0.1436
     55 H19         7.6249   -3.8800    4.7897 H         1 <0>         0.1454
     56 H20        11.2395   -9.2995    4.5849 H         1 <0>         0.4465
     57 H21        11.6973   -5.4251    5.4059 H         1 <0>         0.4459
     58 H22        12.7825   -6.5488    6.0242 H         1 <0>         0.4329
     59 H23         7.8981   -0.8694    0.9101 H         1 <0>         0.1274
     60 H24         8.5751    1.1855   -0.2482 H         1 <0>         0.1317
     61 H25         8.2905    3.3639    0.7954 H         1 <0>         0.1338
     62 H26         6.1564    0.6121    5.0998 H         1 <0>         0.1271
     63 H27         5.8706    2.8046    6.1258 H         1 <0>         0.1266
     64 H28         6.5567    4.8465    4.9428 H         1 <0>         0.1282
     65 H29         7.5515    4.7274    2.7219 H         1 <0>         0.1324
     66 H30        12.5176   -8.7904    5.5493 H         1 <0>         0.4324
@<TRIPOS>BOND
     1    1    6 ar
     2    1    2 ar
     3    1   37 1
     4    2    3 ar
     5    2   38 1
     6    3    4 ar
     7    3   39 1
     8    4    5 ar
     9    4    7 1
    10    5    6 ar
    11    5   40 1
    12    6   41 1
    13    7    8 1
    14    7   42 1
    15    7   43 1
    16    8    9 1
    17    8   44 1
    18    8   45 1
    19    9   10 1
    20    9   46 1
    21    9   47 1
    22   10   11 1
    23   10   25 am
    24   11   12 1
    25   11   48 1
    26   11   49 1
    27   12   21 ar
    28   12   13 ar
    29   13   14 ar
    30   13   50 1
    31   14   15 ar
    32   14   51 1
    33   15   20 ar
    34   15   16 ar
    35   16   17 ar
    36   16   52 1
    37   17   18 ar
    38   17   53 1
    39   18   19 ar
    40   18   22 1
    41   19   20 ar
    42   19   54 1
    43   20   21 ar
    44   21   55 1
    45   22   23 2
    46   22   24 1
    47   23   56 1
    48   23   66 1
    49   24   57 1
    50   24   58 1
    51   25   26 2
    52   25   27 1
    53   27   32 ar
    54   27   28 ar
    55   28   29 ar
    56   28   59 1
    57   29   30 ar
    58   29   60 1
    59   30   31 ar
    60   30   61 1
    61   31   36 ar
    62   31   32 ar
    63   32   33 ar
    64   33   34 ar
    65   33   62 1
    66   34   35 ar
    67   34   63 1
    68   35   36 ar
    69   35   64 1
    70   36   65 1
@<TRIPOS>MOLECULE
CHEMBL195032
   62    66     0     0     0
SMALL
USER_CHARGES

@<TRIPOS>ATOM
      1 C1          3.1475    3.7566    3.0758 C.ar      1 <0>        -0.1110
      2 C2          3.1539    2.3639    3.1014 C.ar      1 <0>        -0.1032
      3 C3          3.7268    1.6475    2.0939 C.ar      1 <0>        -0.1093
      4 C4          4.3184    2.3180    1.0148 C.ar      1 <0>        -0.0150
      5 C5          4.3126    3.7337    0.9865 C.ar      1 <0>        -0.0547
      6 C6          3.7129    4.4405    2.0434 C.ar      1 <0>        -0.1036
      7 C7          4.9052    4.4074   -0.0954 C.ar      1 <0>        -0.0754
      8 C8          5.4807    3.7009   -1.1089 C.ar      1 <0>        -0.1277
      9 C9          5.4958    2.3119   -1.0990 C.ar      1 <0>        -0.0789
     10 C10         4.9232    1.6059   -0.0512 C.ar      1 <0>        -0.1191
     11 C11         4.9435    0.1315   -0.0463 C.2       1 <0>         0.5699
     12 O1          3.9042   -0.4905    0.0620 O.2       1 <0>        -0.5180
     13 N1          6.1139   -0.5267   -0.1620 N.am      1 <0>        -0.6052
     14 C12         7.3754    0.2180   -0.1705 C.3       1 <0>         0.1091
     15 C13         7.8919    0.3626    1.2624 C.3       1 <0>        -0.0863
     16 C14         9.1896    1.1287    1.2537 C.ar      1 <0>         0.1294
     17 C15         9.3191    2.2620    2.0344 C.ar      1 <0>        -0.1621
     18 C16        10.5171    2.9595    2.0192 C.ar      1 <0>        -0.0686
     19 C17        11.5446    2.4889    1.2157 C.ar      1 <0>        -0.1735
     20 C18        11.3419    1.3485    0.4622 C.ar      1 <0>         0.0999
     21 N2         10.1902    0.7071    0.5056 N.ar      1 <0>        -0.4864
     22 C19         6.1245   -1.9870   -0.2793 C.3       1 <0>         0.1438
     23 C20         6.1749   -2.3737   -1.7350 C.ar      1 <0>        -0.0851
     24 C21         4.9895   -2.6514   -2.4131 C.ar      1 <0>        -0.0605
     25 C22         4.9998   -3.0035   -3.7281 C.ar      1 <0>        -0.1152
     26 C23         6.2214   -3.0892   -4.4166 C.ar      1 <0>        -0.0109
     27 C24         6.2647   -3.4500   -5.7758 C.ar      1 <0>        -0.0792
     28 C25         7.4568   -3.5263   -6.4204 C.ar      1 <0>        -0.0966
     29 C26         8.6595   -3.2481   -5.7473 C.ar      1 <0>        -0.1600
     30 C27         8.6503   -2.8901   -4.4103 C.ar      1 <0>        -0.0135
     31 C28         7.4276   -2.8063   -3.7270 C.ar      1 <0>        -0.0661
     32 C29         7.3768   -2.4411   -2.3697 C.ar      1 <0>        -0.0819
     33 C30         9.9448   -3.3394   -6.4736 C.cat     1 <0>         0.6024
     34 N3         10.0802   -4.1985   -7.4822 N.pl3     1 <0>        -0.7587
     35 N4         10.9667   -2.5625   -6.1189 N.pl3     1 <0>        -0.7619
     36 H1          2.6833    4.3017    3.8844 H         1 <0>         0.1284
     37 H2          2.6987    1.8446    3.9318 H         1 <0>         0.1276
     38 H3          3.7252    0.5680    2.1269 H         1 <0>         0.1308
     39 H4          3.7005    5.5204    2.0362 H         1 <0>         0.1320
     40 H5          4.9042    5.4871   -0.1239 H         1 <0>         0.1334
     41 H6          5.9327    4.2303   -1.9346 H         1 <0>         0.1298
     42 H7          5.9582    1.7764   -1.9149 H         1 <0>         0.1253
     43 H8          8.1107   -0.3195   -0.7693 H         1 <0>         0.0900
     44 H9          7.2108    1.2067   -0.5988 H         1 <0>         0.0910
     45 H10         7.1567    0.9001    1.8612 H         1 <0>         0.0836
     46 H11         8.0566   -0.6262    1.6908 H         1 <0>         0.0879
     47 H12         8.4973    2.6000    2.6482 H         1 <0>         0.1347
     48 H13        10.6468    3.8484    2.6186 H         1 <0>         0.1371
     49 H14        12.4913    3.0074    1.1790 H         1 <0>         0.1365
     50 H15        12.1371    0.9755   -0.1661 H         1 <0>         0.1553
     51 H16         6.9998   -2.3863    0.2332 H         1 <0>         0.0957
     52 H17         5.2208   -2.3945    0.1738 H         1 <0>         0.1062
     53 H18         4.0483   -2.5867   -1.8873 H         1 <0>         0.1411
     54 H19         4.0728   -3.2165   -4.2398 H         1 <0>         0.1418
     55 H20         5.3492   -3.6665   -6.3063 H         1 <0>         0.1480
     56 H21         7.4819   -3.8046   -7.4636 H         1 <0>         0.1363
     57 H22         9.5765   -2.6776   -3.8971 H         1 <0>         0.1434
     58 H23         8.2873   -2.2189   -1.8329 H         1 <0>         0.1400
     59 H24         9.3359   -4.7643   -7.7406 H         1 <0>         0.4467
     60 H25        10.8681   -1.9368   -5.3843 H         1 <0>         0.4453
     61 H26        11.8096   -2.6223   -6.5952 H         1 <0>         0.4326
     62 H27        10.9231   -4.2583   -7.9585 H         1 <0>         0.4324
@<TRIPOS>BOND
     1    1    6 ar
     2    1    2 ar
     3    1   36 1
     4    2    3 ar
     5    2   37 1
     6    3    4 ar
     7    3   38 1
     8    4   10 ar
     9    4    5 ar
    10    5    6 ar
    11    5    7 ar
    12    6   39 1
    13    7    8 ar
    14    7   40 1
    15    8    9 ar
    16    8   41 1
    17    9   10 ar
    18    9   42 1
    19   10   11 1
    20   11   12 2
    21   11   13 am
    22   13   14 1
    23   13   22 1
    24   14   15 1
    25   14   43 1
    26   14   44 1
    27   15   16 1
    28   15   45 1
    29   15   46 1
    30   16   21 ar
    31   16   17 ar
    32   17   18 ar
    33   17   47 1
    34   18   19 ar
    35   18   48 1
    36   19   20 ar
    37   19   49 1
    38   20   21 ar
    39   20   50 1
    40   22   23 1
    41   22   51 1
    42   22   52 1
    43   23   32 ar
    44   23   24 ar
    45   24   25 ar
    46   24   53 1
    47   25   26 ar
    48   25   54 1
    49   26   31 ar
    50   26   27 ar
    51   27   28 ar
    52   27   55 1
    53   28   29 ar
    54   28   56 1
    55   29   30 ar
    56   29   33 1
    57   30   31 ar
    58   30   57 1
    59   31   32 ar
    60   32   58 1
    61   33   34 2
    62   33   35 1
    63   34   59 1
    64   34   62 1
    65   35   60 1
    66   35   61 1
@<TRIPOS>MOLECULE
CHEMBL208702
   62    66     0     0     0
SMALL
USER_CHARGES

@<TRIPOS>ATOM
      1 C1         -0.0167    1.3781    0.0096 C.ar      1 <0>        -0.1191
      2 C2          1.1709    2.0855    0.0021 C.ar      1 <0>        -0.1179
      3 C3          2.3773    1.4107   -0.0130 C.ar      1 <0>        -0.1139
      4 C4          2.3960    0.0285   -0.0201 C.ar      1 <0>        -0.0865
      5 C5          1.2084   -0.6789   -0.0117 C.ar      1 <0>        -0.1135
      6 C6          0.0021   -0.0041    0.0020 C.ar      1 <0>        -0.1174
      7 C7          3.7112   -0.7071   -0.0376 C.3       1 <0>        -0.0900
      8 C8          4.1714   -0.9633    1.3989 C.3       1 <0>         0.1431
      9 N1          5.4498   -1.6784    1.3820 N.am      1 <0>        -0.7463
     10 C9          6.0502   -2.0132    2.5413 C.2       1 <0>         0.7034
     11 O1          5.5307   -1.7217    3.6012 O.2       1 <0>        -0.5854
     12 N2          7.2263   -2.6711    2.5257 N.am      1 <0>        -0.7445
     13 C10         7.8789   -3.0350    3.7858 C.3       1 <0>         0.1789
     14 C11         9.1690   -3.7569    3.4933 C.ar      1 <0>        -0.1021
     15 C12         9.1738   -5.1334    3.3546 C.ar      1 <0>        -0.0892
     16 C13        10.3541   -5.8025    3.0861 C.ar      1 <0>        -0.1160
     17 C14        11.5346   -5.0993    2.9550 C.ar      1 <0>        -0.0902
     18 C15        11.5357   -3.7128    3.0937 C.ar      1 <0>        -0.0526
     19 C16        10.3423   -3.0432    3.3587 C.ar      1 <0>        -0.0816
     20 C17        12.8012   -2.9516    2.9539 C.ar      1 <0>        -0.0604
     21 C18        12.8578   -1.8379    2.1179 C.ar      1 <0>        -0.0663
     22 C19        14.0346   -1.1267    1.9859 C.ar      1 <0>        -0.1172
     23 C20        15.1650   -1.5115    2.6794 C.ar      1 <0>        -0.0831
     24 C21        15.1265   -2.6237    3.5208 C.ar      1 <0>        -0.0928
     25 C22        13.9368   -3.3456    3.6640 C.ar      1 <0>         0.1559
     26 O2         13.8883   -4.4263    4.4844 O.3       1 <0>        -0.4818
     27 C23        16.3374   -3.0350    4.2624 C.2       1 <0>         0.1594
     28 C24        16.3558   -3.4855    5.5421 C.2       1 <0>        -0.1266
     29 C25        17.7493   -3.7749    5.8704 C.ar      1 <0>        -0.1366
     30 C26        18.4122   -4.2536    7.0003 C.ar      1 <0>         0.2058
     31 N3         19.7196   -4.4110    6.9825 N.ar      1 <0>        -0.4602
     32 H1         17.8630   -2.7470    2.8617 H         1 <0>         0.4366
     33 C27        20.4499   -4.1290    5.9162 C.ar      1 <0>         0.0982
     34 C28        19.8780   -3.6516    4.7572 C.ar      1 <0>        -0.1122
     35 C29        18.4985   -3.4640    4.7148 C.ar      1 <0>         0.1764
     36 N4         17.6187   -3.0253    3.7583 N.pl3     1 <0>        -0.5535
     37 H2         -0.9591    1.9053    0.0259 H         1 <0>         0.1231
     38 H3          1.1563    3.1654    0.0076 H         1 <0>         0.1234
     39 H4          3.3051    1.9634   -0.0196 H         1 <0>         0.1216
     40 H5          1.2231   -1.7588   -0.0176 H         1 <0>         0.1221
     41 H6         -0.9258   -0.5567    0.0082 H         1 <0>         0.1237
     42 H7          3.5884   -1.6586   -0.5549 H         1 <0>         0.0796
     43 H8          4.4573   -0.1052   -0.5563 H         1 <0>         0.0791
     44 H9          4.2941   -0.0118    1.9163 H         1 <0>         0.0694
     45 H10         3.4252   -1.5652    1.9176 H         1 <0>         0.0698
     46 H11         5.8643   -1.9110    0.5363 H         1 <0>         0.3963
     47 H12         7.6408   -2.9037    1.6800 H         1 <0>         0.3966
     48 H13         8.0895   -2.1326    4.3597 H         1 <0>         0.0768
     49 H14         7.2206   -3.6861    4.3611 H         1 <0>         0.0786
     50 H15         8.2525   -5.6876    3.4567 H         1 <0>         0.1293
     51 H16        10.3521   -6.8772    2.9792 H         1 <0>         0.1297
     52 H17        12.4558   -5.6228    2.7457 H         1 <0>         0.1176
     53 H18        10.3366   -1.9682    3.4628 H         1 <0>         0.1272
     54 H19        11.9788   -1.5302    1.5711 H         1 <0>         0.1392
     55 H20        14.0709   -0.2648    1.3362 H         1 <0>         0.1402
     56 H21        16.0812   -0.9502    2.5700 H         1 <0>         0.1296
     57 H22        14.1138   -5.2603    4.0500 H         1 <0>         0.3932
     58 H23        15.5030   -3.6066    6.1937 H         1 <0>         0.1829
     59 H24        17.8523   -4.4952    7.8917 H         1 <0>         0.2114
     60 H25        21.5191   -4.2761    5.9551 H         1 <0>         0.2077
     61 H26        20.4893   -3.4261    3.8959 H         1 <0>         0.1786
     62 H27        20.1621   -4.7448    7.7786 H         1 <0>         0.4521
@<TRIPOS>BOND
     1    1    6 ar
     2    1    2 ar
     3    1   37 1
     4    2    3 ar
     5    2   38 1
     6    3    4 ar
     7    3   39 1
     8    4    5 ar
     9    4    7 1
    10    5    6 ar
    11    5   40 1
    12    6   41 1
    13    7    8 1
    14    7   42 1
    15    7   43 1
    16    8    9 1
    17    8   44 1
    18    8   45 1
    19    9   10 am
    20    9   46 1
    21   10   11 2
    22   10   12 am
    23   12   13 1
    24   12   47 1
    25   13   14 1
    26   13   48 1
    27   13   49 1
    28   14   19 ar
    29   14   15 ar
    30   15   16 ar
    31   15   50 1
    32   16   17 ar
    33   16   51 1
    34   17   18 ar
    35   17   52 1
    36   18   19 ar
    37   18   20 1
    38   19   53 1
    39   20   25 ar
    40   20   21 ar
    41   21   22 ar
    42   21   54 1
    43   22   23 ar
    44   22   55 1
    45   23   24 ar
    46   23   56 1
    47   24   25 ar
    48   24   27 1
    49   25   26 1
    50   26   57 1
    51   27   36 1
    52   27   28 2
    53   28   29 1
    54   28   58 1
    55   29   30 ar
    56   29   35 ar
    57   30   31 ar
    58   30   59 1
    59   31   33 ar
    60   31   62 1
    61   32   36 1
    62   33   34 ar
    63   33   60 1
    64   34   35 ar
    65   34   61 1
    66   35   36 1
@<TRIPOS>MOLECULE
CHEMBL208701
   61    64     0     0     0
SMALL
USER_CHARGES

@<TRIPOS>ATOM
      1 C1         -0.0187    1.5258    0.0104 C.3       1 <0>        -0.1555
      2 C2          0.0021   -0.0041    0.0020 C.3       1 <0>        -0.1240
      3 C3          0.7421   -0.5109    1.2415 C.3       1 <0>        -0.1182
      4 C4          0.7628   -2.0407    1.2331 C.3       1 <0>        -0.1314
      5 C5          1.5028   -2.5476    2.4727 C.3       1 <0>         0.1360
      6 N1          1.5227   -4.0124    2.4646 N.am      1 <0>        -0.7460
      7 C6          2.1250   -4.6837    3.4661 C.2       1 <0>         0.7027
      8 O1          2.6519   -4.0736    4.3763 O.2       1 <0>        -0.5868
      9 N2          2.1433   -6.0313    3.4587 N.am      1 <0>        -0.7449
     10 C7          2.7980   -6.7610    4.5474 C.3       1 <0>         0.1789
     11 C8          2.6781   -8.2431    4.3021 C.ar      1 <0>        -0.1021
     12 C9          1.5880   -8.9384    4.7941 C.ar      1 <0>        -0.0892
     13 C10         1.4715  -10.2986    4.5727 C.ar      1 <0>        -0.1159
     14 C11         2.4436  -10.9701    3.8589 C.ar      1 <0>        -0.0903
     15 C12         3.5437  -10.2749    3.3610 C.ar      1 <0>        -0.0526
     16 C13         3.6531   -8.9030    3.5823 C.ar      1 <0>        -0.0816
     17 C14         4.5916  -10.9909    2.5932 C.ar      1 <0>        -0.0603
     18 C15         5.0190  -10.4938    1.3632 C.ar      1 <0>        -0.0664
     19 C16         5.9949  -11.1580    0.6460 C.ar      1 <0>        -0.1172
     20 C17         6.5558  -12.3195    1.1391 C.ar      1 <0>        -0.0831
     21 C18         6.1401  -12.8315    2.3686 C.ar      1 <0>        -0.0928
     22 C19         5.1563  -12.1613    3.1034 C.ar      1 <0>         0.1559
     23 O2          4.7490  -12.6492    4.3031 O.3       1 <0>        -0.4818
     24 C20         6.7408  -14.0754    2.8953 C.2       1 <0>         0.1593
     25 C21         7.0637  -14.2992    4.1941 C.2       1 <0>        -0.1265
     26 C22         7.6251  -15.6457    4.2659 C.ar      1 <0>        -0.1366
     27 C23         8.1331  -16.4436    5.2909 C.ar      1 <0>         0.2059
     28 N3          8.5792  -17.6542    5.0269 N.ar      1 <0>        -0.4602
     29 H1          6.9114  -15.2708    1.1883 H         1 <0>         0.4366
     30 C24         8.5671  -18.1597    3.8044 C.ar      1 <0>         0.0981
     31 C25         8.0833  -17.4416    2.7328 C.ar      1 <0>        -0.1121
     32 C26         7.5974  -16.1543    2.9492 C.ar      1 <0>         0.1763
     33 N4          7.0529  -15.1863    2.1442 N.pl3     1 <0>        -0.5534
     34 H2          1.0039    1.9031    0.0027 H         1 <0>         0.0547
     35 H3         -0.5459    1.8868   -0.8726 H         1 <0>         0.0551
     36 H4         -0.5289    1.8773    0.9072 H         1 <0>         0.0549
     37 H5         -1.0205   -0.3814    0.0098 H         1 <0>         0.0615
     38 H6          0.5123   -0.3556   -0.8948 H         1 <0>         0.0612
     39 H7          1.7647   -0.1336    1.2338 H         1 <0>         0.0664
     40 H8          0.2319   -0.1594    2.1383 H         1 <0>         0.0668
     41 H9         -0.2598   -2.4180    1.2409 H         1 <0>         0.0690
     42 H10         1.2730   -2.3923    0.3363 H         1 <0>         0.0685
     43 H11         2.5254   -2.1703    2.4649 H         1 <0>         0.0672
     44 H12         0.9926   -2.1961    3.3695 H         1 <0>         0.0676
     45 H13         1.1023   -4.4992    1.7385 H         1 <0>         0.3959
     46 H14         1.7229   -6.5181    2.7326 H         1 <0>         0.3965
     47 H15         3.8513   -6.4836    4.5888 H         1 <0>         0.0767
     48 H16         2.3185   -6.5094    5.4933 H         1 <0>         0.0785
     49 H17         0.8252   -8.4171    5.3534 H         1 <0>         0.1293
     50 H18         0.6185  -10.8365    4.9594 H         1 <0>         0.1298
     51 H19         2.3518  -12.0324    3.6870 H         1 <0>         0.1176
     52 H20         4.5014   -8.3585    3.1949 H         1 <0>         0.1272
     53 H21         4.5854   -9.5864    0.9695 H         1 <0>         0.1392
     54 H22         6.3210  -10.7667   -0.3064 H         1 <0>         0.1402
     55 H23         7.3178  -12.8329    0.5716 H         1 <0>         0.1296
     56 H24         4.0081  -13.2679    4.2451 H         1 <0>         0.3932
     57 H25         6.9312  -13.6128    5.0173 H         1 <0>         0.1830
     58 H26         8.1609  -16.0678    6.3030 H         1 <0>         0.2114
     59 H27         8.9455  -19.1583    3.6427 H         1 <0>         0.2077
     60 H28         8.0812  -17.8696    1.7412 H         1 <0>         0.1786
     61 H29         8.9289  -18.1935    5.7534 H         1 <0>         0.4521
@<TRIPOS>BOND
     1    1    2 1
     2    1   34 1
     3    1   35 1
     4    1   36 1
     5    2    3 1
     6    2   37 1
     7    2   38 1
     8    3    4 1
     9    3   39 1
    10    3   40 1
    11    4    5 1
    12    4   41 1
    13    4   42 1
    14    5    6 1
    15    5   43 1
    16    5   44 1
    17    6    7 am
    18    6   45 1
    19    7    8 2
    20    7    9 am
    21    9   10 1
    22    9   46 1
    23   10   11 1
    24   10   47 1
    25   10   48 1
    26   11   16 ar
    27   11   12 ar
    28   12   13 ar
    29   12   49 1
    30   13   14 ar
    31   13   50 1
    32   14   15 ar
    33   14   51 1
    34   15   16 ar
    35   15   17 1
    36   16   52 1
    37   17   22 ar
    38   17   18 ar
    39   18   19 ar
    40   18   53 1
    41   19   20 ar
    42   19   54 1
    43   20   21 ar
    44   20   55 1
    45   21   22 ar
    46   21   24 1
    47   22   23 1
    48   23   56 1
    49   24   33 1
    50   24   25 2
    51   25   26 1
    52   25   57 1
    53   26   27 ar
    54   26   32 ar
    55   27   28 ar
    56   27   58 1
    57   28   30 ar
    58   28   61 1
    59   29   33 1
    60   30   31 ar
    61   30   59 1
    62   31   32 ar
    63   31   60 1
    64   32   33 1
@<TRIPOS>MOLECULE
CHEMBL133623
   62    65     0     0     0
SMALL
USER_CHARGES

@<TRIPOS>ATOM
      1 C1         -0.1008    1.2170   -0.0023 C.ar      1 <0>        -0.1074
      2 C2          1.0914    1.8830   -0.2168 C.ar      1 <0>        -0.1218
      3 C3          2.2829    1.1823   -0.2240 C.ar      1 <0>        -0.0973
      4 C4          2.2823   -0.1844   -0.0163 C.ar      1 <0>        -0.1176
      5 C5          1.0902   -0.8502    0.1992 C.ar      1 <0>        -0.0975
      6 C6         -0.1015   -0.1497    0.2050 C.ar      1 <0>        -0.1219
      7 C7          3.5813   -0.9484   -0.0251 C.3       1 <0>         0.1721
      8 N1          4.1330   -0.9894    1.3314 N.pl3     1 <0>        -0.6744
      9 C8          5.3334   -1.6434    1.5731 C.2       1 <0>         0.3767
     10 C9          5.8872   -1.6929    2.9292 C.2       1 <0>         0.4994
     11 O1          5.3028   -1.1627    3.8591 O.2       1 <0>        -0.5183
     12 N2          7.0578   -2.3379    3.1291 N.am      1 <0>        -0.4564
     13 C10         7.6873   -2.9235    2.0587 C.2       1 <0>         0.0866
     14 C11         7.1339   -2.8537    0.8013 C.2       1 <0>         0.1275
     15 N3          5.9803   -2.2288    0.5862 N.2       1 <0>        -0.4987
     16 Cl1         7.9554   -3.6036   -0.5315 Cl        1 <0>        -0.0034
     17 C12         8.9672   -3.6325    2.2584 C.ar      1 <0>        -0.0597
     18 C13         9.0511   -4.6842    3.1736 C.ar      1 <0>        -0.1049
     19 C14        10.2498   -5.3420    3.3552 C.ar      1 <0>        -0.1205
     20 C15        11.3675   -4.9622    2.6332 C.ar      1 <0>        -0.1016
     21 C16        11.2915   -3.9210    1.7248 C.ar      1 <0>        -0.1149
     22 C17        10.0978   -3.2582    1.5289 C.ar      1 <0>        -0.0774
     23 C18         7.6468   -2.4108    4.4685 C.3       1 <0>         0.0799
     24 C19         7.0314   -3.5590    5.2261 C.2       1 <0>         0.5074
     25 O2          6.1843   -4.2486    4.6990 O.2       1 <0>        -0.5079
     26 N4          7.4225   -3.8196    6.4892 N.am      1 <0>        -0.7267
     27 C20         6.8243   -4.9359    7.2257 C.3       1 <0>         0.1474
     28 C21         7.4302   -5.0108    8.6035 C.ar      1 <0>        -0.0383
     29 C22         8.5651   -5.7729    8.8163 C.ar      1 <0>        -0.0948
     30 C23         9.1244   -5.8460   10.0755 C.ar      1 <0>        -0.0578
     31 C24         8.5432   -5.1489   11.1352 C.ar      1 <0>        -0.1497
     32 C25         7.3991   -4.3818   10.9139 C.ar      1 <0>        -0.0573
     33 C26         6.8524   -4.3128    9.6489 C.ar      1 <0>        -0.0947
     34 C27         9.1376   -5.2233   12.4882 C.cat     1 <0>         0.6000
     35 N5          8.5807   -4.5570   13.4975 N.pl3     1 <0>        -0.7602
     36 N6         10.2293   -5.9566   12.6964 N.pl3     1 <0>        -0.7604
     37 H1         -1.0313    1.7652    0.0078 H         1 <0>         0.1251
     38 H2          1.0918    2.9507   -0.3791 H         1 <0>         0.1259
     39 H3          3.2143    1.7025   -0.3923 H         1 <0>         0.1248
     40 H4          1.0897   -1.9180    0.3612 H         1 <0>         0.1243
     41 H5         -1.0329   -0.6700    0.3729 H         1 <0>         0.1256
     42 H6          3.4024   -1.9650   -0.3755 H         1 <0>         0.0828
     43 H7          4.2891   -0.4540   -0.6904 H         1 <0>         0.0835
     44 H8          3.6595   -0.5595    2.0608 H         1 <0>         0.4210
     45 H9          8.1797   -4.9815    3.7380 H         1 <0>         0.1236
     46 H10        10.3163   -6.1553    4.0627 H         1 <0>         0.1243
     47 H11        12.3037   -5.4804    2.7795 H         1 <0>         0.1271
     48 H12        12.1678   -3.6295    1.1649 H         1 <0>         0.1316
     49 H13        10.0387   -2.4489    0.8162 H         1 <0>         0.1308
     50 H14         8.7224   -2.5658    4.3844 H         1 <0>         0.1314
     51 H15         7.4545   -1.4794    5.0011 H         1 <0>         0.1312
     52 H16         8.1001   -3.2681    6.9107 H         1 <0>         0.4048
     53 H17         5.7487   -4.7808    7.3097 H         1 <0>         0.0915
     54 H18         7.0166   -5.8672    6.6930 H         1 <0>         0.0917
     55 H19         9.0140   -6.3120    7.9952 H         1 <0>         0.1515
     56 H20        10.0099   -6.4418   10.2406 H         1 <0>         0.1410
     57 H21         6.9444   -3.8403   11.7302 H         1 <0>         0.1410
     58 H22         5.9691   -3.7161    9.4755 H         1 <0>         0.1517
     59 H23         7.7854   -4.0228   13.3459 H         1 <0>         0.4447
     60 H24        10.6350   -6.4420   11.9611 H         1 <0>         0.4445
     61 H25        10.6189   -6.0054   13.5834 H         1 <0>         0.4346
     62 H26         8.9704   -4.6058   14.3845 H         1 <0>         0.4346
@<TRIPOS>BOND
     1    1    6 ar
     2    1    2 ar
     3    1   37 1
     4    2    3 ar
     5    2   38 1
     6    3    4 ar
     7    3   39 1
     8    4    5 ar
     9    4    7 1
    10    5    6 ar
    11    5   40 1
    12    6   41 1
    13    7    8 1
    14    7   42 1
    15    7   43 1
    16    8    9 1
    17    8   44 1
    18    9   15 2
    19    9   10 1
    20   10   11 2
    21   10   12 am
    22   12   13 1
    23   12   23 1
    24   13   14 2
    25   13   17 1
    26   14   15 1
    27   14   16 1
    28   17   22 ar
    29   17   18 ar
    30   18   19 ar
    31   18   45 1
    32   19   20 ar
    33   19   46 1
    34   20   21 ar
    35   20   47 1
    36   21   22 ar
    37   21   48 1
    38   22   49 1
    39   23   24 1
    40   23   50 1
    41   23   51 1
    42   24   25 2
    43   24   26 am
    44   26   27 1
    45   26   52 1
    46   27   28 1
    47   27   53 1
    48   27   54 1
    49   28   33 ar
    50   28   29 ar
    51   29   30 ar
    52   29   55 1
    53   30   31 ar
    54   30   56 1
    55   31   32 ar
    56   31   34 1
    57   32   33 ar
    58   32   57 1
    59   33   58 1
    60   34   35 2
    61   34   36 1
    62   35   59 1
    63   35   62 1
    64   36   60 1
    65   36   61 1
@<TRIPOS>MOLECULE
CHEMBL199235
   52    54     0     0     0
SMALL
USER_CHARGES

@<TRIPOS>ATOM
      1 C1         -0.0187    1.5258    0.0104 C.3       1 <0>        -0.1521
      2 C2          0.0021   -0.0041    0.0020 C.3       1 <0>         0.0533
      3 O1         -1.3386   -0.4987    0.0122 O.3       1 <0>        -0.3145
      4 C3         -1.4983   -1.8483    0.0064 C.ar      1 <0>         0.1377
      5 C4         -0.3882   -2.6772   -0.0029 C.ar      1 <0>        -0.2031
      6 C5         -0.5561   -4.0593   -0.0087 C.ar      1 <0>        -0.0053
      7 C6         -1.8402   -4.6014   -0.0052 C.ar      1 <0>        -0.1247
      8 C7         -2.9407   -3.7684    0.0041 C.ar      1 <0>        -0.0226
      9 C8         -2.7735   -2.3961    0.0157 C.ar      1 <0>        -0.1461
     10 C9         -4.3282   -4.3565    0.0075 C.3       1 <0>         0.0968
     11 C10        -4.8934   -4.3181   -1.3890 C.2       1 <0>         0.4930
     12 O2         -4.4368   -5.0487   -2.2517 O.co2     1 <0>        -0.6694
     13 O3         -5.8073   -3.5566   -1.6561 O.co2     1 <0>        -0.6693
     14 N1         -5.1866   -3.5774    0.9033 N.pl3     1 <0>        -0.6579
     15 C11        -6.3047   -4.1680    1.4830 C.ar      1 <0>         0.3120
     16 C12        -6.6035   -5.5009    1.2156 C.ar      1 <0>        -0.1957
     17 C13        -7.7090   -6.0880    1.7881 C.ar      1 <0>        -0.0016
     18 C14        -8.5315   -5.3447    2.6385 C.ar      1 <0>        -0.2559
     19 C15        -8.2291   -4.0069    2.9050 C.ar      1 <0>        -0.0022
     20 C16        -7.1194   -3.4265    2.3338 C.ar      1 <0>        -0.2063
     21 C17        -9.7185   -5.9716    3.2539 C.cat     1 <0>         0.6017
     22 N2        -10.5023   -5.2614    4.0648 N.pl3     1 <0>        -0.7834
     23 N3        -10.0061   -7.2477    2.9984 N.pl3     1 <0>        -0.7819
     24 C18         0.6287   -4.9528   -0.0192 C.ar      1 <0>        -0.0426
     25 C19         0.4613   -6.3360   -0.0308 C.ar      1 <0>        -0.1056
     26 C20         1.5668   -7.1623   -0.0405 C.ar      1 <0>        -0.1174
     27 C21         2.8391   -6.6195   -0.0387 C.ar      1 <0>        -0.1194
     28 C22         3.0111   -5.2471   -0.0267 C.ar      1 <0>        -0.1193
     29 C23         1.9126   -4.4114   -0.0233 C.ar      1 <0>        -0.1100
     30 H1          1.0039    1.9031    0.0027 H         1 <0>         0.0781
     31 H2         -0.5459    1.8868   -0.8726 H         1 <0>         0.0674
     32 H3         -0.5289    1.8773    0.9072 H         1 <0>         0.0656
     33 H4          0.5123   -0.3556   -0.8948 H         1 <0>         0.0621
     34 H5          0.5293   -0.3651    0.8851 H         1 <0>         0.0608
     35 H6          0.6047   -2.2523   -0.0060 H         1 <0>         0.1303
     36 H7         -1.9740   -5.6731   -0.0100 H         1 <0>         0.1292
     37 H8         -3.6377   -1.7484    0.0278 H         1 <0>         0.1283
     38 H9         -4.2843   -5.3891    0.3535 H         1 <0>         0.0975
     39 H10        -4.9753   -2.6497    1.0921 H         1 <0>         0.4074
     40 H11        -5.9675   -6.0748    0.5579 H         1 <0>         0.1427
     41 H12        -7.9405   -7.1222    1.5800 H         1 <0>         0.1282
     42 H13        -8.8634   -3.4298    3.5616 H         1 <0>         0.1276
     43 H14        -6.8827   -2.3937    2.5431 H         1 <0>         0.1390
     44 H15       -11.2820   -5.6732    4.4690 H         1 <0>         0.4236
     45 H16        -9.4356   -7.7646    2.4082 H         1 <0>         0.4405
     46 H17       -10.7857   -7.6595    3.4026 H         1 <0>         0.4237
     47 H18        -0.5316   -6.7608   -0.0319 H         1 <0>         0.1281
     48 H19         1.4382   -8.2345   -0.0492 H         1 <0>         0.1248
     49 H20         3.7014   -7.2698   -0.0463 H         1 <0>         0.1223
     50 H21         4.0067   -4.8287   -0.0247 H         1 <0>         0.1235
     51 H22         2.0480   -3.3400   -0.0192 H         1 <0>         0.1220
     52 H23       -10.2931   -4.3327    4.2507 H         1 <0>         0.4391
@<TRIPOS>BOND
     1    1    2 1
     2    1   30 1
     3    1   31 1
     4    1   32 1
     5    2    3 1
     6    2   33 1
     7    2   34 1
     8    3    4 1
     9    4    9 ar
    10    4    5 ar
    11    5    6 ar
    12    5   35 1
    13    6    7 ar
    14    6   24 1
    15    7    8 ar
    16    7   36 1
    17    8    9 ar
    18    8   10 1
    19    9   37 1
    20   10   11 1
    21   10   14 1
    22   10   38 1
    23   11   12 2
    24   11   13 1
    25   14   15 1
    26   14   39 1
    27   15   20 ar
    28   15   16 ar
    29   16   17 ar
    30   16   40 1
    31   17   18 ar
    32   17   41 1
    33   18   19 ar
    34   18   21 1
    35   19   20 ar
    36   19   42 1
    37   20   43 1
    38   21   22 2
    39   21   23 1
    40   22   44 1
    41   22   52 1
    42   23   45 1
    43   23   46 1
    44   24   29 ar
    45   24   25 ar
    46   25   26 ar
    47   25   47 1
    48   26   27 ar
    49   26   48 1
    50   27   28 ar
    51   27   49 1
    52   28   29 ar
    53   28   50 1
    54   29   51 1
@<TRIPOS>MOLECULE
CHEMBL199235__1
   52    54     0     0     0
SMALL
USER_CHARGES

@<TRIPOS>ATOM
      1 C1         -0.0187    1.5258    0.0104 C.3       1 <0>        -0.1521
      2 C2          0.0021   -0.0041    0.0020 C.3       1 <0>         0.0533
      3 O1         -1.3386   -0.4987    0.0122 O.3       1 <0>        -0.3139
      4 C3         -1.4983   -1.8483    0.0064 C.ar      1 <0>         0.1365
      5 C4         -0.3882   -2.6772   -0.0029 C.ar      1 <0>        -0.2025
      6 C5         -0.5561   -4.0593   -0.0087 C.ar      1 <0>        -0.0064
      7 C6         -1.8402   -4.6014   -0.0052 C.ar      1 <0>        -0.1287
      8 C7         -2.9407   -3.7684    0.0041 C.ar      1 <0>        -0.0277
      9 C8         -2.7735   -2.3961    0.0157 C.ar      1 <0>        -0.1395
     10 C9         -4.3282   -4.3565    0.0075 C.3       1 <0>         0.0984
     11 C10        -4.8806   -4.3325    1.4094 C.2       1 <0>         0.4942
     12 O2         -5.5106   -3.3644    1.7999 O.co2     1 <0>        -0.6674
     13 O3         -4.6975   -5.2811    2.1531 O.co2     1 <0>        -0.6726
     14 N1         -5.1947   -3.5683   -0.8723 N.pl3     1 <0>        -0.6593
     15 C11        -6.3182   -4.1530   -1.4478 C.ar      1 <0>         0.3052
     16 C12        -6.6209   -5.4853   -1.1821 C.ar      1 <0>        -0.1975
     17 C13        -7.7321   -6.0664   -1.7498 C.ar      1 <0>        -0.0012
     18 C14        -8.5565   -5.3174   -2.5933 C.ar      1 <0>        -0.2550
     19 C15        -8.2501   -3.9801   -2.8582 C.ar      1 <0>        -0.0027
     20 C16        -7.1406   -3.4029   -2.2835 C.ar      1 <0>        -0.2058
     21 C17        -9.7492   -5.9381   -3.2042 C.cat     1 <0>         0.6019
     22 N2        -10.5347   -5.2225   -4.0087 N.pl3     1 <0>        -0.7831
     23 N3        -10.0400   -7.2139   -2.9511 N.pl3     1 <0>        -0.7813
     24 C18         0.6287   -4.9528   -0.0192 C.ar      1 <0>        -0.0426
     25 C19         0.4613   -6.3360   -0.0308 C.ar      1 <0>        -0.1061
     26 C20         1.5668   -7.1623   -0.0405 C.ar      1 <0>        -0.1172
     27 C21         2.8391   -6.6195   -0.0387 C.ar      1 <0>        -0.1195
     28 C22         3.0111   -5.2471   -0.0267 C.ar      1 <0>        -0.1191
     29 C23         1.9126   -4.4114   -0.0233 C.ar      1 <0>        -0.1101
     30 H1          1.0039    1.9031    0.0027 H         1 <0>         0.0780
     31 H2         -0.5459    1.8868   -0.8726 H         1 <0>         0.0657
     32 H3         -0.5289    1.8773    0.9072 H         1 <0>         0.0676
     33 H4          0.5123   -0.3556   -0.8948 H         1 <0>         0.0607
     34 H5          0.5293   -0.3651    0.8851 H         1 <0>         0.0619
     35 H6          0.6047   -2.2523   -0.0060 H         1 <0>         0.1304
     36 H7         -1.9740   -5.6731   -0.0100 H         1 <0>         0.1296
     37 H8         -3.6377   -1.7484    0.0278 H         1 <0>         0.1309
     38 H9         -4.2876   -5.3856   -0.3494 H         1 <0>         0.0971
     39 H10        -4.9851   -2.6387   -1.0536 H         1 <0>         0.4085
     40 H11        -5.9831   -6.0639   -0.5303 H         1 <0>         0.1465
     41 H12        -7.9663   -7.1003   -1.5436 H         1 <0>         0.1290
     42 H13        -8.8854   -3.3989   -3.5101 H         1 <0>         0.1280
     43 H14        -6.9057   -2.3680   -2.4843 H         1 <0>         0.1395
     44 H15       -11.3180   -5.6302   -4.4100 H         1 <0>         0.4238
     45 H16        -9.4683   -7.7347   -2.3656 H         1 <0>         0.4407
     46 H17       -10.8234   -7.6216   -3.3523 H         1 <0>         0.4240
     47 H18        -0.5316   -6.7608   -0.0319 H         1 <0>         0.1281
     48 H19         1.4382   -8.2345   -0.0492 H         1 <0>         0.1249
     49 H20         3.7014   -7.2698   -0.0463 H         1 <0>         0.1224
     50 H21         4.0067   -4.8287   -0.0247 H         1 <0>         0.1235
     51 H22         2.0480   -3.3400   -0.0192 H         1 <0>         0.1220
     52 H23       -10.3230   -4.2940   -4.1929 H         1 <0>         0.4392
@<TRIPOS>BOND
     1    1    2 1
     2    1   30 1
     3    1   31 1
     4    1   32 1
     5    2    3 1
     6    2   33 1
     7    2   34 1
     8    3    4 1
     9    4    9 ar
    10    4    5 ar
    11    5    6 ar
    12    5   35 1
    13    6    7 ar
    14    6   24 1
    15    7    8 ar
    16    7   36 1
    17    8    9 ar
    18    8   10 1
    19    9   37 1
    20   10   11 1
    21   10   14 1
    22   10   38 1
    23   11   12 2
    24   11   13 1
    25   14   15 1
    26   14   39 1
    27   15   20 ar
    28   15   16 ar
    29   16   17 ar
    30   16   40 1
    31   17   18 ar
    32   17   41 1
    33   18   19 ar
    34   18   21 1
    35   19   20 ar
    36   19   42 1
    37   20   43 1
    38   21   22 2
    39   21   23 1
    40   22   44 1
    41   22   52 1
    42   23   45 1
    43   23   46 1
    44   24   29 ar
    45   24   25 ar
    46   25   26 ar
    47   25   47 1
    48   26   27 ar
    49   26   48 1
    50   27   28 ar
    51   27   49 1
    52   28   29 ar
    53   28   50 1
    54   29   51 1
@<TRIPOS>MOLECULE
CHEMBL383382
   60    62     0     0     0
SMALL
USER_CHARGES

@<TRIPOS>ATOM
      1 C1         -0.0708    1.4658   -0.8562 C.3       1 <0>        -0.1521
      2 C2         -0.0371   -0.0492   -0.6452 C.3       1 <0>         0.0526
      3 O1         -1.3641   -0.5280   -0.4169 O.3       1 <0>        -0.3104
      4 C3         -1.5112   -1.8630   -0.2096 C.ar      1 <0>         0.1721
      5 C4         -2.7731   -2.3964    0.0127 C.ar      1 <0>        -0.1788
      6 C5         -2.9233   -3.7535    0.2235 C.ar      1 <0>         0.0085
      7 C6         -1.8180   -4.5831    0.2141 C.ar      1 <0>        -0.2295
      8 C7         -0.5544   -4.0546   -0.0077 C.ar      1 <0>         0.1727
      9 C8         -0.4017   -2.6938   -0.2257 C.ar      1 <0>        -0.2467
     10 O2          0.5321   -4.8709   -0.0168 O.3       1 <0>        -0.3072
     11 C9          0.2895   -6.2751    0.0892 C.3       1 <0>         0.0811
     12 C10         0.1610   -6.6606    1.5642 C.3       1 <0>        -0.1411
     13 C11        -0.0988   -8.1642    1.6776 C.3       1 <0>        -0.1106
     14 C12         1.0661   -8.9318    1.0494 C.3       1 <0>         0.1028
     15 C13         1.1946   -8.5463   -0.4256 C.3       1 <0>        -0.1498
     16 C14         1.4544   -7.0428   -0.5390 C.3       1 <0>        -0.1111
     17 O3          0.8235  -10.3361    1.1554 O.3       1 <0>        -0.5674
     18 C15        -4.2946   -4.3301    0.4647 C.3       1 <0>         0.0978
     19 C16        -5.0096   -4.4931   -0.8519 C.2       1 <0>         0.4950
     20 O4         -4.9051   -5.5344   -1.4775 O.co2     1 <0>        -0.6729
     21 O5         -5.6925   -3.5838   -1.2914 O.co2     1 <0>        -0.6660
     22 N1         -5.0596   -3.4262    1.3272 N.pl3     1 <0>        -0.6588
     23 C17        -6.1000   -3.9225    2.1058 C.ar      1 <0>         0.3055
     24 C18        -6.4094   -5.2791    2.0687 C.ar      1 <0>        -0.1981
     25 C19        -7.4381   -5.7731    2.8384 C.ar      1 <0>        -0.0010
     26 C20        -8.1720   -4.9113    3.6575 C.ar      1 <0>        -0.2550
     27 C21        -7.8592   -3.5500    3.6927 C.ar      1 <0>        -0.0025
     28 C22        -6.8260   -3.0625    2.9248 C.ar      1 <0>        -0.2058
     29 C23        -9.2766   -5.4382    4.4840 C.cat     1 <0>         0.6021
     30 N2         -9.9758   -4.6150    5.2649 N.pl3     1 <0>        -0.7831
     31 N3         -9.5741   -6.7368    4.4492 N.pl3     1 <0>        -0.7812
     32 H1          0.9413    1.8309   -1.0303 H         1 <0>         0.0782
     33 H2         -0.6946    1.6986   -1.7192 H         1 <0>         0.0674
     34 H3         -0.4832    1.9470    0.0306 H         1 <0>         0.0655
     35 H4          0.3753   -0.5305   -1.5319 H         1 <0>         0.0638
     36 H5          0.5866   -0.2821    0.2179 H         1 <0>         0.0625
     37 H6         -3.6382   -1.7501    0.0212 H         1 <0>         0.1310
     38 H7         -1.9379   -5.6435    0.3799 H         1 <0>         0.1331
     39 H8          0.5805   -2.2812   -0.4029 H         1 <0>         0.1350
     40 H9         -0.6340   -6.5247   -0.4333 H         1 <0>         0.0822
     41 H10         1.0845   -6.4111    2.0867 H         1 <0>         0.0757
     42 H11        -0.6688   -6.1137    2.0118 H         1 <0>         0.0776
     43 H12        -0.1903   -8.4388    2.7285 H         1 <0>         0.0752
     44 H13        -1.0222   -8.4137    1.1551 H         1 <0>         0.0748
     45 H14         1.9896   -8.6822    1.5719 H         1 <0>         0.0572
     46 H15         2.0245   -9.0932   -0.8732 H         1 <0>         0.0747
     47 H16         0.2711   -8.7959   -0.9481 H         1 <0>         0.0772
     48 H17         1.5459   -6.7681   -1.5899 H         1 <0>         0.0779
     49 H18         2.3778   -6.7932   -0.0165 H         1 <0>         0.0751
     50 H19         1.5231  -10.8858    0.7767 H         1 <0>         0.3790
     51 H20        -4.2000   -5.3017    0.9496 H         1 <0>         0.0962
     52 H21        -4.8406   -2.4817    1.3554 H         1 <0>         0.4092
     53 H22        -5.8420   -5.9447    1.4351 H         1 <0>         0.1459
     54 H23        -7.6779   -6.8257    2.8089 H         1 <0>         0.1289
     55 H24        -8.4251   -2.8815    4.3246 H         1 <0>         0.1281
     56 H25        -6.5809   -2.0112    2.9550 H         1 <0>         0.1398
     57 H26        -9.7592   -3.6698    5.2903 H         1 <0>         0.4392
     58 H27        -9.0652   -7.3359    3.8808 H         1 <0>         0.4407
     59 H28       -10.2996   -7.0829    4.9921 H         1 <0>         0.4240
     60 H29       -10.7013   -4.9611    5.8078 H         1 <0>         0.4238
@<TRIPOS>BOND
     1    1    2 1
     2    1   32 1
     3    1   33 1
     4    1   34 1
     5    2    3 1
     6    2   35 1
     7    2   36 1
     8    3    4 1
     9    4    9 ar
    10    4    5 ar
    11    5    6 ar
    12    5   37 1
    13    6    7 ar
    14    6   18 1
    15    7    8 ar
    16    7   38 1
    17    8    9 ar
    18    8   10 1
    19    9   39 1
    20   10   11 1
    21   11   16 1
    22   11   12 1
    23   11   40 1
    24   12   13 1
    25   12   41 1
    26   12   42 1
    27   13   14 1
    28   13   43 1
    29   13   44 1
    30   14   15 1
    31   14   17 1
    32   14   45 1
    33   15   16 1
    34   15   46 1
    35   15   47 1
    36   16   48 1
    37   16   49 1
    38   17   50 1
    39   18   19 1
    40   18   22 1
    41   18   51 1
    42   19   20 2
    43   19   21 1
    44   22   23 1
    45   22   52 1
    46   23   28 ar
    47   23   24 ar
    48   24   25 ar
    49   24   53 1
    50   25   26 ar
    51   25   54 1
    52   26   27 ar
    53   26   29 1
    54   27   28 ar
    55   27   55 1
    56   28   56 1
    57   29   30 2
    58   29   31 1
    59   30   57 1
    60   30   60 1
    61   31   58 1
    62   31   59 1
@<TRIPOS>MOLECULE
CHEMBL383382__1
   60    62     0     0     0
SMALL
USER_CHARGES

@<TRIPOS>ATOM
      1 C1         -0.0708    1.4658   -0.8562 C.3       1 <0>        -0.1521
      2 C2         -0.0371   -0.0492   -0.6452 C.3       1 <0>         0.0526
      3 O1         -1.3640   -0.5280   -0.4171 O.3       1 <0>        -0.3109
      4 C3         -1.5112   -1.8630   -0.2099 C.ar      1 <0>         0.1730
      5 C4         -2.7731   -2.3965    0.0123 C.ar      1 <0>        -0.1852
      6 C5         -2.9233   -3.7535    0.2231 C.ar      1 <0>         0.0135
      7 C6         -1.8180   -4.5831    0.2138 C.ar      1 <0>        -0.2255
      8 C7         -0.5544   -4.0546   -0.0078 C.ar      1 <0>         0.1740
      9 C8         -0.4017   -2.6938   -0.2258 C.ar      1 <0>        -0.2476
     10 O2          0.5321   -4.8709   -0.0168 O.3       1 <0>        -0.3075
     11 C9          0.2895   -6.2751    0.0892 C.3       1 <0>         0.0855
     12 C10         0.1610   -6.6606    1.5642 C.3       1 <0>        -0.1471
     13 C11        -0.0988   -8.1642    1.6776 C.3       1 <0>        -0.1083
     14 C12         1.0661   -8.9318    1.0494 C.3       1 <0>         0.1013
     15 C13         1.1946   -8.5463   -0.4256 C.3       1 <0>        -0.1472
     16 C14         1.4544   -7.0428   -0.5390 C.3       1 <0>        -0.1113
     17 O3          0.8235  -10.3361    1.1554 O.3       1 <0>        -0.5668
     18 C15        -4.2946   -4.3301    0.4640 C.3       1 <0>         0.0960
     19 C16        -4.6908   -4.1009    1.8998 C.2       1 <0>         0.4940
     20 O4         -5.5752   -3.3060    2.1687 O.co2     1 <0>        -0.6683
     21 O5         -4.1268   -4.7103    2.7926 O.co2     1 <0>        -0.6689
     22 N1         -5.2620   -3.6752   -0.4200 N.pl3     1 <0>        -0.6574
     23 C17        -6.4341   -4.3334   -0.7777 C.ar      1 <0>         0.3115
     24 C18        -6.6891   -5.6120   -0.2904 C.ar      1 <0>        -0.1957
     25 C19        -7.8483   -6.2656   -0.6423 C.ar      1 <0>        -0.0017
     26 C20        -8.7693   -5.6443   -1.4896 C.ar      1 <0>        -0.2557
     27 C21        -8.5106   -4.3608   -1.9773 C.ar      1 <0>        -0.0024
     28 C22        -7.3523   -3.7099   -1.6177 C.ar      1 <0>        -0.2059
     29 C23       -10.0136   -6.3431   -1.8693 C.cat     1 <0>         0.6018
     30 N2        -10.8913   -5.7493   -2.6776 N.pl3     1 <0>        -0.7834
     31 N3        -10.2589   -7.5676   -1.4038 N.pl3     1 <0>        -0.7818
     32 H1          0.9414    1.8310   -1.0301 H         1 <0>         0.0783
     33 H2         -0.6944    1.6986   -1.7193 H         1 <0>         0.0655
     34 H3         -0.4833    1.9470    0.0306 H         1 <0>         0.0673
     35 H4          0.3754   -0.5305   -1.5319 H         1 <0>         0.0625
     36 H5          0.5865   -0.2821    0.2179 H         1 <0>         0.0639
     37 H6         -3.6383   -1.7501    0.0207 H         1 <0>         0.1287
     38 H7         -1.9379   -5.6435    0.3796 H         1 <0>         0.1328
     39 H8          0.5805   -2.2812   -0.4029 H         1 <0>         0.1349
     40 H9         -0.6340   -6.5247   -0.4333 H         1 <0>         0.0761
     41 H10         1.0845   -6.4111    2.0867 H         1 <0>         0.0764
     42 H11        -0.6688   -6.1137    2.0118 H         1 <0>         0.0874
     43 H12        -0.1903   -8.4388    2.7285 H         1 <0>         0.0785
     44 H13        -1.0222   -8.4137    1.1551 H         1 <0>         0.0718
     45 H14         1.9896   -8.6822    1.5719 H         1 <0>         0.0583
     46 H15         2.0245   -9.0932   -0.8732 H         1 <0>         0.0735
     47 H16         0.2711   -8.7959   -0.9481 H         1 <0>         0.0734
     48 H17         1.5459   -6.7681   -1.5899 H         1 <0>         0.0753
     49 H18         2.3778   -6.7932   -0.0165 H         1 <0>         0.0764
     50 H19         1.5231  -10.8858    0.7767 H         1 <0>         0.3774
     51 H20        -4.2802   -5.4003    0.2575 H         1 <0>         0.0962
     52 H21        -5.0852   -2.7825   -0.7559 H         1 <0>         0.4082
     53 H22        -5.9767   -6.0919    0.3642 H         1 <0>         0.1423
     54 H23        -8.0455   -7.2578   -0.2641 H         1 <0>         0.1282
     55 H24        -9.2206   -3.8783   -2.6326 H         1 <0>         0.1277
     56 H25        -7.1538   -2.7160   -1.9908 H         1 <0>         0.1392
     57 H26       -10.7128   -4.8581   -3.0165 H         1 <0>         0.4392
     58 H27        -9.6201   -7.9998   -0.8155 H         1 <0>         0.4405
     59 H28       -11.0762   -8.0266   -1.6532 H         1 <0>         0.4238
     60 H29       -11.7086   -6.2083   -2.9271 H         1 <0>         0.4236
@<TRIPOS>BOND
     1    1    2 1
     2    1   32 1
     3    1   33 1
     4    1   34 1
     5    2    3 1
     6    2   35 1
     7    2   36 1
     8    3    4 1
     9    4    9 ar
    10    4    5 ar
    11    5    6 ar
    12    5   37 1
    13    6    7 ar
    14    6   18 1
    15    7    8 ar
    16    7   38 1
    17    8    9 ar
    18    8   10 1
    19    9   39 1
    20   10   11 1
    21   11   16 1
    22   11   12 1
    23   11   40 1
    24   12   13 1
    25   12   41 1
    26   12   42 1
    27   13   14 1
    28   13   43 1
    29   13   44 1
    30   14   15 1
    31   14   17 1
    32   14   45 1
    33   15   16 1
    34   15   46 1
    35   15   47 1
    36   16   48 1
    37   16   49 1
    38   17   50 1
    39   18   19 1
    40   18   22 1
    41   18   51 1
    42   19   20 2
    43   19   21 1
    44   22   23 1
    45   22   52 1
    46   23   28 ar
    47   23   24 ar
    48   24   25 ar
    49   24   53 1
    50   25   26 ar
    51   25   54 1
    52   26   27 ar
    53   26   29 1
    54   27   28 ar
    55   27   55 1
    56   28   56 1
    57   29   30 2
    58   29   31 1
    59   30   57 1
    60   30   60 1
    61   31   58 1
    62   31   59 1
@<TRIPOS>MOLECULE
CHEMBL376806
   68    70     0     0     0
SMALL
USER_CHARGES

@<TRIPOS>ATOM
      1 C1          0.7833   -0.2367   -1.2283 C.3       1 <0>        -0.1415
      2 C2         -0.1220   -0.0855   -0.0042 C.3       1 <0>        -0.0997
      3 C3         -1.4249   -0.8535   -0.2354 C.3       1 <0>        -0.1453
      4 C4          0.5892   -0.6471    1.2286 C.3       1 <0>        -0.1012
      5 C5         -0.2494   -0.3606    2.4758 C.3       1 <0>         0.0764
      6 H1         -1.2434   -0.7904    2.3519 H         1 <0>         0.0827
      7 C6          0.4165   -0.9740    3.6806 C.2       1 <0>         0.4886
      8 O1          0.9262   -0.2582    4.5258 O.co2     1 <0>        -0.6798
      9 O2          0.4455   -2.1860    3.8101 O.co2     1 <0>        -0.7094
     10 N1         -0.3637    1.0875    2.6654 N.am      1 <0>        -0.6936
     11 C7         -1.4109    1.5979    3.3431 C.2       1 <0>         0.5613
     12 O3         -2.2608    0.8565    3.7970 O.2       1 <0>        -0.5481
     13 C8         -1.5262    3.0583    3.5343 C.ar      1 <0>        -0.1323
     14 C9         -0.5500    3.9107    3.0061 C.ar      1 <0>        -0.0972
     15 C10        -0.6494    5.2726    3.1789 C.ar      1 <0>        -0.1341
     16 C11        -1.7253    5.8134    3.8827 C.ar      1 <0>        -0.0045
     17 C12        -2.7133    4.9613    4.4181 C.ar      1 <0>        -0.0898
     18 C13        -2.6093    3.5841    4.2349 C.ar      1 <0>        -0.0308
     19 C14        -3.8521    5.5248    5.1628 C.2       1 <0>         0.5310
     20 O4         -4.7074    4.7829    5.6259 O.co2     1 <0>        -0.6864
     21 O5         -3.9427    6.7348    5.3182 O.co2     1 <0>        -0.6842
     22 C15        -1.8295    7.2760    4.0673 C.ar      1 <0>         0.0125
     23 C16        -2.0207    8.1087    2.9654 C.ar      1 <0>        -0.0771
     24 C17        -2.1178    9.4726    3.1385 C.ar      1 <0>        -0.1769
     25 C18        -2.0261   10.0285    4.4114 C.ar      1 <0>         0.1919
     26 C19        -1.8357    9.2130    5.5191 C.ar      1 <0>        -0.1675
     27 C20        -1.7420    7.8337    5.3574 C.ar      1 <0>        -0.0058
     28 C21        -1.5456    6.9599    6.5324 C.2       1 <0>         0.5631
     29 O6         -1.4590    5.7560    6.3869 O.2       1 <0>        -0.4720
     30 N2         -1.4623    7.4974    7.7655 N.am      1 <0>        -0.6786
     31 C22        -1.3746    6.6656    8.8865 C.ar      1 <0>         0.1605
     32 C23        -1.9963    7.0323   10.0745 C.ar      1 <0>        -0.1271
     33 C24        -1.9126    6.2138   11.1850 C.ar      1 <0>        -0.1117
     34 C25        -1.2116    5.0265   11.1217 C.ar      1 <0>        -0.1141
     35 C26        -0.5842    4.6489    9.9334 C.ar      1 <0>        -0.1169
     36 C27        -0.6726    5.4727    8.8112 C.ar      1 <0>        -0.0597
     37 C28         0.1679    3.3778    9.8631 C.2       1 <0>         0.5551
     38 O7          0.7135    3.0509    8.8273 O.2       1 <0>        -0.5119
     39 N3          0.2483    2.5815   10.9475 N.am      1 <0>        -0.8559
     40 N4         -2.1252   11.4091    4.5747 N.pl3     1 <0>        -0.7599
     41 C29        -2.3255   12.2722    3.4080 C.3       1 <0>         0.1000
     42 H2          1.0783   -1.2806   -1.3353 H         1 <0>         0.0507
     43 H3          0.2441    0.0818   -2.1205 H         1 <0>         0.0470
     44 H4          1.6724    0.3809   -1.1013 H         1 <0>         0.0501
     45 H5         -0.3453    0.9696    0.1544 H         1 <0>         0.0697
     46 H6         -1.2016   -1.9085   -0.3940 H         1 <0>         0.0508
     47 H7         -2.0698   -0.7457    0.6367 H         1 <0>         0.0612
     48 H8         -1.9316   -0.4533   -1.1136 H         1 <0>         0.0448
     49 H9          0.7164   -1.7237    1.1156 H         1 <0>         0.0753
     50 H10         1.5661   -0.1746    1.3312 H         1 <0>         0.0579
     51 H11         0.3144    1.6791    2.3032 H         1 <0>         0.3869
     52 H12         0.2856    3.4978    2.4605 H         1 <0>         0.1140
     53 H13         0.1080    5.9242    2.7687 H         1 <0>         0.1141
     54 H14        -3.3644    2.9256    4.6382 H         1 <0>         0.1330
     55 H15        -2.0924    7.6844    1.9748 H         1 <0>         0.1212
     56 H16        -2.2655   10.1135    2.2819 H         1 <0>         0.1152
     57 H17        -1.7643    9.6480    6.5051 H         1 <0>         0.1117
     58 H18        -1.4632    8.4611    7.8756 H         1 <0>         0.4033
     59 H19        -2.5462    7.9602   10.1301 H         1 <0>         0.1264
     60 H20        -2.3970    6.5043   12.1054 H         1 <0>         0.1270
     61 H21        -1.1482    4.3898   11.9918 H         1 <0>         0.1219
     62 H22        -0.1926    5.1838    7.8878 H         1 <0>         0.1559
     63 H23        -0.1871    2.8424   11.7742 H         1 <0>         0.3954
     64 H24         0.7417    1.7476   10.9014 H         1 <0>         0.4036
     65 H25        -2.0616   11.7985    5.4608 H         1 <0>         0.3946
     66 H26        -1.4920   12.1480    2.7167 H         1 <0>         0.0467
     67 H27        -3.2552   11.9986    2.9090 H         1 <0>         0.0477
     68 H28        -2.3785   13.3122    3.7302 H         1 <0>         0.0640
@<TRIPOS>BOND
     1    1    2 1
     2    1   42 1
     3    1   43 1
     4    1   44 1
     5    2    3 1
     6    2    4 1
     7    2   45 1
     8    3   46 1
     9    3   47 1
    10    3   48 1
    11    4    5 1
    12    4   49 1
    13    4   50 1
    14    5    6 1
    15    5    7 1
    16    5   10 1
    17    7    8 2
    18    7    9 1
    19   10   11 am
    20   10   51 1
    21   11   12 2
    22   11   13 1
    23   13   18 ar
    24   13   14 ar
    25   14   15 ar
    26   14   52 1
    27   15   16 ar
    28   15   53 1
    29   16   17 ar
    30   16   22 1
    31   17   18 ar
    32   17   19 1
    33   18   54 1
    34   19   20 2
    35   19   21 1
    36   22   27 ar
    37   22   23 ar
    38   23   24 ar
    39   23   55 1
    40   24   25 ar
    41   24   56 1
    42   25   26 ar
    43   25   40 1
    44   26   27 ar
    45   26   57 1
    46   27   28 1
    47   28   29 2
    48   28   30 am
    49   30   31 1
    50   30   58 1
    51   31   36 ar
    52   31   32 ar
    53   32   33 ar
    54   32   59 1
    55   33   34 ar
    56   33   60 1
    57   34   35 ar
    58   34   61 1
    59   35   36 ar
    60   35   37 1
    61   36   62 1
    62   37   38 2
    63   37   39 am
    64   39   63 1
    65   39   64 1
    66   40   41 1
    67   40   65 1
    68   41   66 1
    69   41   67 1
    70   41   68 1
@<TRIPOS>MOLECULE
CHEMBL214352
   64    68     0     0     0
SMALL
USER_CHARGES

@<TRIPOS>ATOM
      1 C1         -0.0340    1.3883    0.0288 C.ar      1 <0>        -0.1224
      2 C2          1.1504    2.1000    0.0176 C.ar      1 <0>        -0.0736
      3 C3          2.3716    1.4291    0.0013 C.ar      1 <0>        -0.0643
      4 C4          2.3972    0.0327   -0.0038 C.ar      1 <0>         0.1513
      5 C5          1.1945   -0.6805    0.0076 C.ar      1 <0>        -0.0848
      6 C6         -0.0195    0.0080    0.0239 C.ar      1 <0>        -0.0695
      7 C7          1.2088   -2.1587    0.0019 C.2       1 <0>         0.1514
      8 C8          0.3725   -2.9514    0.7168 C.2       1 <0>        -0.1743
      9 C9          0.7364   -4.3353    0.4133 C.ar      1 <0>        -0.1158
     10 C10         0.2515   -5.5742    0.8318 C.ar      1 <0>         0.0147
     11 C11         0.8351   -6.7370    0.3409 C.ar      1 <0>        -0.1892
     12 C12         1.9007   -6.6590   -0.5660 C.ar      1 <0>        -0.0588
     13 C13         2.3779   -5.4493   -0.9771 C.ar      1 <0>        -0.1102
     14 C14         1.8089   -4.2708   -0.4994 C.ar      1 <0>         0.1528
     15 N1          2.0689   -2.9409   -0.7342 N.pl3     1 <0>        -0.5609
     16 H1          2.7579   -2.6043   -1.3282 H         1 <0>         0.4326
     17 C15         0.3314   -8.0565    0.7764 C.cat     1 <0>         0.6048
     18 N2          0.8901   -9.1709    0.3065 N.pl3     1 <0>        -0.7672
     19 N3         -0.6812   -8.1315    1.6387 N.pl3     1 <0>        -0.7691
     20 O1          3.5831   -0.6285   -0.0201 O.3       1 <0>        -0.4845
     21 C16         3.6409    2.1959   -0.0112 C.ar      1 <0>        -0.0831
     22 C17         3.9920    2.9856    1.0815 C.ar      1 <0>        -0.0683
     23 C18         5.1746    3.6970    1.0652 C.ar      1 <0>        -0.1181
     24 C19         6.0137    3.6289   -0.0331 C.ar      1 <0>        -0.0731
     25 C20         5.6749    2.8486   -1.1223 C.ar      1 <0>        -0.1468
     26 C21         4.4932    2.1251   -1.1171 C.ar      1 <0>         0.1462
     27 O2          4.1616    1.3536   -2.1851 O.3       1 <0>        -0.4881
     28 C22         5.5532    4.5512    2.2476 C.3       1 <0>         0.1795
     29 N4          6.3307    3.7524    3.1982 N.am      1 <0>        -0.7434
     30 C23         6.7804    4.3118    4.3389 C.2       1 <0>         0.7096
     31 O3          6.6194    5.5005    4.5378 O.2       1 <0>        -0.5812
     32 N5          7.4084    3.5536    5.2593 N.am      1 <0>        -0.6332
     33 C24         7.7216    2.1410    4.9911 C.3       1 <0>         0.0775
     34 C25         9.2021    1.9048    5.3110 C.3       1 <0>         0.0469
     35 O4          9.4794    2.3770    6.6316 O.3       1 <0>        -0.3767
     36 C26         9.2782    3.7817    6.8053 C.3       1 <0>         0.0456
     37 C27         7.8067    4.1155    6.5597 C.3       1 <0>         0.0937
     38 H2         -0.9767    1.9151    0.0460 H         1 <0>         0.1384
     39 H3          1.1295    3.1798    0.0212 H         1 <0>         0.1353
     40 H4         -0.9498   -0.5405    0.0327 H         1 <0>         0.1360
     41 H5         -0.4118   -2.6238    1.3831 H         1 <0>         0.1621
     42 H6         -0.5697   -5.6299    1.5311 H         1 <0>         0.1381
     43 H7          2.3490   -7.5663   -0.9430 H         1 <0>         0.1373
     44 H8          3.1999   -5.4048   -1.6762 H         1 <0>         0.1436
     45 H9          1.6274   -9.1164   -0.3214 H         1 <0>         0.4432
     46 H10        -1.0880   -7.3200    1.9809 H         1 <0>         0.4426
     47 H11        -1.0118   -8.9974    1.9245 H         1 <0>         0.4315
     48 H12         3.9371   -0.8230    0.8585 H         1 <0>         0.3907
     49 H13         3.3394    3.0413    1.9402 H         1 <0>         0.1301
     50 H14         6.9374    4.1885   -0.0392 H         1 <0>         0.1325
     51 H15         6.3337    2.7998   -1.9767 H         1 <0>         0.1351
     52 H16         3.6475    1.8169   -2.8605 H         1 <0>         0.3907
     53 H17         6.1519    5.3965    1.9082 H         1 <0>         0.0802
     54 H18         4.6498    4.9182    2.7348 H         1 <0>         0.0775
     55 H19         6.5219    2.8210    3.0065 H         1 <0>         0.3952
     56 H20         7.1033    1.5018    5.6214 H         1 <0>         0.0792
     57 H21         7.5323    1.9159    3.9416 H         1 <0>         0.0836
     58 H22         9.4218    0.8388    5.2519 H         1 <0>         0.1074
     59 H23         9.8202    2.4451    4.5939 H         1 <0>         0.0574
     60 H24         9.5528    4.0659    7.8211 H         1 <0>         0.1114
     61 H25         9.8966    4.3287    6.0936 H         1 <0>         0.0579
     62 H26         7.6738    5.1973    6.5484 H         1 <0>         0.1060
     63 H27         7.1971    3.6785    7.3506 H         1 <0>         0.0761
     64 H28         0.5595  -10.0369    0.5923 H         1 <0>         0.4313
@<TRIPOS>BOND
     1    1    6 ar
     2    1    2 ar
     3    1   38 1
     4    2    3 ar
     5    2   39 1
     6    3    4 ar
     7    3   21 1
     8    4    5 ar
     9    4   20 1
    10    5    6 ar
    11    5    7 1
    12    6   40 1
    13    7   15 1
    14    7    8 2
    15    8    9 1
    16    8   41 1
    17    9   14 ar
    18    9   10 ar
    19   10   11 ar
    20   10   42 1
    21   11   12 ar
    22   11   17 1
    23   12   13 ar
    24   12   43 1
    25   13   14 ar
    26   13   44 1
    27   14   15 1
    28   15   16 1
    29   17   18 2
    30   17   19 1
    31   18   45 1
    32   18   64 1
    33   19   46 1
    34   19   47 1
    35   20   48 1
    36   21   26 ar
    37   21   22 ar
    38   22   23 ar
    39   22   49 1
    40   23   24 ar
    41   23   28 1
    42   24   25 ar
    43   24   50 1
    44   25   26 ar
    45   25   51 1
    46   26   27 1
    47   27   52 1
    48   28   29 1
    49   28   53 1
    50   28   54 1
    51   29   30 am
    52   29   55 1
    53   30   31 2
    54   30   32 am
    55   32   37 1
    56   32   33 1
    57   33   34 1
    58   33   56 1
    59   33   57 1
    60   34   35 1
    61   34   58 1
    62   34   59 1
    63   35   36 1
    64   36   37 1
    65   36   60 1
    66   36   61 1
    67   37   62 1
    68   37   63 1
@<TRIPOS>MOLECULE
CHEMBL201853
   74    76     0     0     0
SMALL
USER_CHARGES

@<TRIPOS>ATOM
      1 C1          1.6615    1.5961    1.4954 C.3       1 <0>        -0.1532
      2 C2          1.8194    0.0743    1.4883 C.3       1 <0>        -0.1310
      3 C3          2.1044   -0.4022    0.0626 C.3       1 <0>         0.1147
      4 N1          2.2556   -1.8594    0.0558 N.am      1 <0>        -0.7363
      5 C4          2.5131   -2.5048   -1.0990 C.2       1 <0>         0.5613
      6 O1          2.6199   -1.8777   -2.1351 O.2       1 <0>        -0.5231
      7 C5          2.6655   -3.9734   -1.1059 C.ar      1 <0>        -0.1653
      8 C6          2.5367   -4.6958    0.0866 C.ar      1 <0>        -0.0821
      9 C7          2.6780   -6.0646    0.0873 C.ar      1 <0>        -0.1535
     10 C8          2.9492   -6.7411   -1.0959 C.ar      1 <0>         0.1365
     11 C9          3.0801   -6.0265   -2.2989 C.ar      1 <0>        -0.1298
     12 C10         2.9315   -4.6397   -2.2989 C.ar      1 <0>        -0.0028
     13 C11         3.3674   -6.7391   -3.5545 C.2       1 <0>         0.5154
     14 O2          3.4809   -6.1145   -4.6002 O.co2     1 <0>        -0.6733
     15 O3          3.4928   -7.9560   -3.5522 O.co2     1 <0>        -0.6598
     16 O4          3.0878   -8.0883   -1.0897 O.3       1 <0>        -0.1688
     17 C12         2.2199   -8.8149   -0.3398 C.ar      1 <0>         0.3325
     18 C13         2.4205  -10.1783   -0.1885 C.ar      1 <0>         0.0528
     19 C14         1.5232  -10.9149    0.5836 C.ar      1 <0>         0.2208
     20 C15         0.4532  -10.2451    1.1761 C.ar      1 <0>         0.0329
     21 C16         0.3191   -8.8796    0.9787 C.ar      1 <0>         0.3002
     22 N2          1.1948   -8.2119    0.2427 N.ar      1 <0>        -0.5393
     23 O5         -0.7191   -8.2179    1.5511 O.3       1 <0>        -0.2165
     24 C17        -0.8619   -6.8948    1.2757 C.ar      1 <0>         0.1080
     25 C18        -0.3105   -6.3634    0.1173 C.ar      1 <0>        -0.0778
     26 C19        -0.4533   -5.0184   -0.1678 C.ar      1 <0>        -0.0838
     27 C20        -1.1449   -4.1948    0.6974 C.ar      1 <0>        -0.0752
     28 C21        -1.7023   -4.7198    1.8636 C.ar      1 <0>        -0.1470
     29 C22        -1.5622   -6.0779    2.1477 C.ar      1 <0>        -0.0810
     30 C23        -2.4444   -3.8395    2.7933 C.cat     1 <0>         0.6097
     31 N3         -2.1186   -2.5526    2.8945 N.pl3     1 <0>        -0.7602
     32 N4         -3.4380   -4.3345    3.5285 N.pl3     1 <0>        -0.7607
     33 F1         -0.4413  -10.9183    1.9323 F         1 <0>        -0.1066
     34 N5          1.6915  -12.2891    0.7589 N.pl3     1 <0>        -0.6534
     35 C24         2.4874  -12.7924    1.8811 C.3       1 <0>         0.1631
     36 C25         3.8908  -12.1857    1.8236 C.3       1 <0>        -0.1711
     37 C26         1.8160  -12.4003    3.1989 C.3       1 <0>        -0.1649
     38 C27         1.0723  -13.2285   -0.1794 C.3       1 <0>         0.1630
     39 C28         2.1506  -14.1282   -0.7865 C.3       1 <0>        -0.1657
     40 C29         0.0478  -14.0894    0.5623 C.3       1 <0>        -0.1622
     41 F2          3.4715  -10.7853   -0.7818 F         1 <0>        -0.0912
     42 H1          2.5803    2.0584    1.1346 H         1 <0>         0.0622
     43 H2          0.8332    1.8785    0.8456 H         1 <0>         0.0585
     44 H3          1.4585    1.9356    2.5111 H         1 <0>         0.0591
     45 H4          2.6477   -0.2081    2.1381 H         1 <0>         0.0699
     46 H5          0.9006   -0.3880    1.8491 H         1 <0>         0.0581
     47 H6          1.2761   -0.1198   -0.5872 H         1 <0>         0.0690
     48 H7          3.0232    0.0601   -0.2982 H         1 <0>         0.0707
     49 H8          2.1703   -2.3597    0.8824 H         1 <0>         0.3944
     50 H9          2.3260   -4.1765    1.0098 H         1 <0>         0.1188
     51 H10         2.5780   -6.6152    1.0110 H         1 <0>         0.1281
     52 H11         3.0267   -4.0844   -3.2203 H         1 <0>         0.1536
     53 H12         0.2319   -7.0031   -0.5630 H         1 <0>         0.1866
     54 H13        -0.0220   -4.6106   -1.0701 H         1 <0>         0.1512
     55 H14        -1.2542   -3.1443    0.4718 H         1 <0>         0.1394
     56 H15        -1.9954   -6.4907    3.0468 H         1 <0>         0.1456
     57 H16        -2.6050   -1.9756    3.5038 H         1 <0>         0.4315
     58 H17        -3.6753   -5.2721    3.4547 H         1 <0>         0.4468
     59 H18        -3.9244   -3.7575    4.1378 H         1 <0>         0.4311
     60 H19         2.5581  -13.8783    1.8184 H         1 <0>         0.0936
     61 H20         3.8275  -11.1083    1.9762 H         1 <0>         0.0497
     62 H21         4.5099  -12.6275    2.6044 H         1 <0>         0.0660
     63 H22         4.3349  -12.3892    0.8492 H         1 <0>         0.0690
     64 H23         0.8434  -12.8872    3.2700 H         1 <0>         0.0616
     65 H24         2.4421  -12.7157    4.0336 H         1 <0>         0.0637
     66 H25         1.6842  -11.3188    3.2318 H         1 <0>         0.0498
     67 H26         0.5732  -12.6730   -0.9734 H         1 <0>         0.0792
     68 H27         2.5818  -14.7556   -0.0064 H         1 <0>         0.0581
     69 H28         1.7062  -14.7593   -1.5561 H         1 <0>         0.0663
     70 H29         2.9320  -13.5107   -1.2295 H         1 <0>         0.0659
     71 H30        -0.7632  -13.4578    0.9247 H         1 <0>         0.0577
     72 H31        -0.3533  -14.8423   -0.1162 H         1 <0>         0.0649
     73 H32         0.5302  -14.5815    1.4068 H         1 <0>         0.0588
     74 H33        -1.3947   -2.1920    2.3588 H         1 <0>         0.4460
@<TRIPOS>BOND
     1    1    2 1
     2    1   42 1
     3    1   43 1
     4    1   44 1
     5    2    3 1
     6    2   45 1
     7    2   46 1
     8    3    4 1
     9    3   47 1
    10    3   48 1
    11    4    5 am
    12    4   49 1
    13    5    6 2
    14    5    7 1
    15    7   12 ar
    16    7    8 ar
    17    8    9 ar
    18    8   50 1
    19    9   10 ar
    20    9   51 1
    21   10   11 ar
    22   10   16 1
    23   11   12 ar
    24   11   13 1
    25   12   52 1
    26   13   14 2
    27   13   15 1
    28   16   17 1
    29   17   22 ar
    30   17   18 ar
    31   18   19 ar
    32   18   41 1
    33   19   20 ar
    34   19   34 1
    35   20   21 ar
    36   20   33 1
    37   21   22 ar
    38   21   23 1
    39   23   24 1
    40   24   29 ar
    41   24   25 ar
    42   25   26 ar
    43   25   53 1
    44   26   27 ar
    45   26   54 1
    46   27   28 ar
    47   27   55 1
    48   28   29 ar
    49   28   30 1
    50   29   56 1
    51   30   31 2
    52   30   32 1
    53   31   57 1
    54   31   74 1
    55   32   58 1
    56   32   59 1
    57   34   35 1
    58   34   38 1
    59   35   36 1
    60   35   37 1
    61   35   60 1
    62   36   61 1
    63   36   62 1
    64   36   63 1
    65   37   64 1
    66   37   65 1
    67   37   66 1
    68   38   39 1
    69   38   40 1
    70   38   67 1
    71   39   68 1
    72   39   69 1
    73   39   70 1
    74   40   71 1
    75   40   72 1
    76   40   73 1
@<TRIPOS>MOLECULE
CHEMBL206387
   62    65     0     0     0
SMALL
USER_CHARGES

@<TRIPOS>ATOM
      1 C1         -0.0167    1.3792    0.0096 C.ar      1 <0>        -0.0968
      2 C2          1.1674    2.0934    0.0022 C.ar      1 <0>        -0.1523
      3 C3          2.3804    1.4258   -0.0130 C.ar      1 <0>         0.1337
      4 C4          2.4031    0.0267   -0.0207 C.ar      1 <0>        -0.0126
      5 C5          1.2040   -0.6830   -0.0130 C.ar      1 <0>        -0.0787
      6 C6          0.0021   -0.0041    0.0020 C.ar      1 <0>        -0.1247
      7 C7         -1.2942   -0.7725    0.0107 C.3       1 <0>         0.1856
      8 N1         -1.7280   -1.0141   -1.3676 N.am      1 <0>        -0.7397
      9 C8         -2.8702   -1.6885   -1.6062 C.2       1 <0>         0.7061
     10 O1         -3.5407   -2.0964   -0.6775 O.2       1 <0>        -0.6015
     11 N2         -3.2693   -1.9108   -2.8742 N.am      1 <0>        -0.8682
     12 C9          3.6959   -0.6966   -0.0373 C.ar      1 <0>        -0.2332
     13 C10         4.0477   -1.4687   -1.1347 C.ar      1 <0>         0.0309
     14 C11         5.2560   -2.1492   -1.1588 C.ar      1 <0>        -0.1107
     15 C12         6.1282   -2.0729   -0.0979 C.ar      1 <0>        -0.0191
     16 C13         5.8053   -1.3019    1.0278 C.ar      1 <0>        -0.3115
     17 C14         4.5773   -0.5981    1.0612 C.ar      1 <0>         0.4277
     18 O2          4.2809    0.0846    2.0338 O.3       1 <0>        -0.5947
     19 C15         6.7041   -1.2233    2.1221 C.cat     1 <0>         0.5119
     20 N3          7.4975   -2.2263    2.5498 N.pl3     1 <0>        -0.5796
     21 H1          7.5474   -3.1144    2.1627 H         1 <0>         0.4610
     22 C16         8.2296   -1.7734    3.6350 C.ar      1 <0>         0.1563
     23 C17         9.1824   -2.3689    4.4544 C.ar      1 <0>        -0.0963
     24 C18         9.7495   -1.6598    5.4750 C.ar      1 <0>        -0.0507
     25 C19         9.3769   -0.3315    5.7043 C.ar      1 <0>        -0.1654
     26 C20         8.4226    0.2757    4.8890 C.ar      1 <0>        -0.0401
     27 C21         7.8490   -0.4444    3.8545 C.ar      1 <0>         0.0841
     28 N4          6.8999   -0.1331    2.8895 N.pl3     1 <0>        -0.5695
     29 C22         9.9945    0.4286    6.8113 C.cat     1 <0>         0.6116
     30 N5         10.4035   -0.2066    7.9086 N.pl3     1 <0>        -0.7623
     31 N6         10.1422    1.7488    6.7118 N.pl3     1 <0>        -0.7625
     32 C23         5.6173   -2.9825   -2.3613 C.3       1 <0>        -0.0964
     33 C24         5.8152   -4.4378   -1.9325 C.3       1 <0>        -0.1480
     34 C25         6.0553   -5.2921   -3.1505 C.2       1 <0>         0.4859
     35 O3          6.0671   -4.7841   -4.2588 O.co2     1 <0>        -0.6665
     36 O4          6.2379   -6.4913   -3.0276 O.co2     1 <0>        -0.7339
     37 C26         6.8933   -2.4600   -2.9695 C.2       1 <0>         0.5295
     38 O5          7.9180   -2.4358   -2.3093 O.co2     1 <0>        -0.7259
     39 O6          6.9009   -2.0615   -4.1217 O.co2     1 <0>        -0.6829
     40 O7          3.5445    2.1267   -0.0208 O.3       1 <0>        -0.4890
     41 H2         -0.9606    1.9037    0.0260 H         1 <0>         0.1216
     42 H3          1.1460    3.1732    0.0078 H         1 <0>         0.1240
     43 H4          1.2148   -1.7630   -0.0192 H         1 <0>         0.1275
     44 H5         -1.1479   -1.7261    0.5180 H         1 <0>         0.0741
     45 H6         -2.0555   -0.1950    0.5352 H         1 <0>         0.0722
     46 H7         -1.1931   -0.6887   -2.1085 H         1 <0>         0.4007
     47 H8         -2.7343   -1.5854   -3.6151 H         1 <0>         0.3987
     48 H9         -4.0913   -2.3961   -3.0459 H         1 <0>         0.4133
     49 H10         3.3753   -1.5407   -1.9768 H         1 <0>         0.1176
     50 H11         7.0651   -2.6092   -0.1320 H         1 <0>         0.1301
     51 H12         9.4745   -3.3945    4.2837 H         1 <0>         0.1608
     52 H13        10.4890   -2.1275    6.1081 H         1 <0>         0.1493
     53 H14         8.1323    1.3012    5.0635 H         1 <0>         0.1490
     54 H15        10.8088    0.2922    8.6351 H         1 <0>         0.4306
     55 H16         9.8444    2.2113    5.9128 H         1 <0>         0.4467
     56 H17        10.5475    2.2476    7.4383 H         1 <0>         0.4306
     57 H18         4.8147   -2.9263   -3.0967 H         1 <0>         0.0654
     58 H19         6.6745   -4.5063   -1.2655 H         1 <0>         0.0509
     59 H20         4.9232   -4.7880   -1.4132 H         1 <0>         0.0368
     60 H21         3.8900    2.3251    0.8603 H         1 <0>         0.3839
     61 H22        10.2960   -1.1679    7.9811 H         1 <0>         0.4464
     62 H23         6.4530    0.7218    2.7870 H         1 <0>         0.4581
@<TRIPOS>BOND
     1    1    6 ar
     2    1    2 ar
     3    1   41 1
     4    2    3 ar
     5    2   42 1
     6    3    4 ar
     7    3   40 1
     8    4    5 ar
     9    4   12 1
    10    5    6 ar
    11    5   43 1
    12    6    7 1
    13    7    8 1
    14    7   44 1
    15    7   45 1
    16    8    9 am
    17    8   46 1
    18    9   10 2
    19    9   11 am
    20   11   47 1
    21   11   48 1
    22   12   17 ar
    23   12   13 ar
    24   13   14 ar
    25   13   49 1
    26   14   15 ar
    27   14   32 1
    28   15   16 ar
    29   15   50 1
    30   16   17 ar
    31   16   19 1
    32   17   18 1
    33   19   28 2
    34   19   20 1
    35   20   21 1
    36   20   22 1
    37   22   27 ar
    38   22   23 ar
    39   23   24 ar
    40   23   51 1
    41   24   25 ar
    42   24   52 1
    43   25   26 ar
    44   25   29 1
    45   26   27 ar
    46   26   53 1
    47   27   28 1
    48   28   62 1
    49   29   30 2
    50   29   31 1
    51   30   54 1
    52   30   61 1
    53   31   55 1
    54   31   56 1
    55   32   33 1
    56   32   37 1
    57   32   57 1
    58   33   34 1
    59   33   58 1
    60   33   59 1
    61   34   35 2
    62   34   36 1
    63   37   38 2
    64   37   39 1
    65   40   60 1
@<TRIPOS>MOLECULE
CHEMBL206387__1
   62    65     0     0     0
SMALL
USER_CHARGES

@<TRIPOS>ATOM
      1 C1         -0.0167    1.3791    0.0096 C.ar      1 <0>        -0.0839
      2 C2          1.1672    2.0929    0.0022 C.ar      1 <0>        -0.1530
      3 C3          2.3804    1.4246   -0.0130 C.ar      1 <0>         0.1485
      4 C4          2.4027    0.0263   -0.0208 C.ar      1 <0>        -0.0561
      5 C5          1.2041   -0.6830   -0.0132 C.ar      1 <0>        -0.0695
      6 C6          0.0021   -0.0041    0.0020 C.ar      1 <0>        -0.1263
      7 C7         -1.2942   -0.7726    0.0103 C.3       1 <0>         0.1847
      8 N1         -1.7275   -1.0142   -1.3682 N.am      1 <0>        -0.7411
      9 C8         -2.8696   -1.6886   -1.6071 C.2       1 <0>         0.7065
     10 O1         -3.5404   -2.0965   -0.6787 O.2       1 <0>        -0.6002
     11 N2         -3.2682   -1.9109   -2.8753 N.am      1 <0>        -0.8678
     12 C9          3.6966   -0.6980   -0.0375 C.ar      1 <0>        -0.0768
     13 C10         4.0488   -1.4732   -1.1403 C.ar      1 <0>        -0.0591
     14 C11         5.2536   -2.1498   -1.1589 C.ar      1 <0>        -0.0007
     15 C12         6.1192   -2.0649   -0.0872 C.ar      1 <0>        -0.0513
     16 C13         5.7834   -1.2926    1.0261 C.ar      1 <0>        -0.0964
     17 C14         4.5680   -0.6001    1.0499 C.ar      1 <0>         0.1486
     18 O2          4.2349    0.1574    2.1256 O.3       1 <0>        -0.4763
     19 C15         6.7107   -1.2025    2.1728 C.2       1 <0>         0.3993
     20 N3          7.9270   -1.8270    2.2532 N.pl3     1 <0>        -0.5833
     21 H1          8.3257   -2.3983    1.5782 H         1 <0>         0.4411
     22 C16         8.4795   -1.4928    3.4719 C.ar      1 <0>         0.0938
     23 C17         9.6737   -1.8160    4.1057 C.ar      1 <0>        -0.0844
     24 C18         9.9483   -1.3180    5.3466 C.ar      1 <0>        -0.0804
     25 C19         9.0329   -0.4782    5.9936 C.ar      1 <0>        -0.1795
     26 C20         7.8327   -0.1438    5.3760 C.ar      1 <0>         0.0068
     27 C21         7.5478   -0.6502    4.1072 C.ar      1 <0>         0.0517
     28 N4          6.4954   -0.5082    3.2635 N.2       1 <0>        -0.4687
     29 C22         9.3434    0.0539    7.3372 C.cat     1 <0>         0.6129
     30 N5         10.1051   -0.6504    8.1729 N.pl3     1 <0>        -0.7660
     31 N6          8.8614    1.2377    7.7126 N.pl3     1 <0>        -0.7660
     32 C23         5.6244   -2.9859   -2.3566 C.3       1 <0>        -0.1150
     33 C24         5.8235   -4.4393   -1.9221 C.3       1 <0>        -0.1465
     34 C25         6.0733   -5.2968   -3.1359 C.2       1 <0>         0.5034
     35 O3          6.0904   -4.7922   -4.2457 O.co2     1 <0>        -0.6570
     36 O4          6.2582   -6.4951   -3.0081 O.co2     1 <0>        -0.7411
     37 C26         6.9027   -2.4620   -2.9587 C.2       1 <0>         0.5051
     38 O5          7.6631   -3.2230   -3.5324 O.co2     1 <0>        -0.6393
     39 O6          7.1766   -1.2771   -2.8720 O.co2     1 <0>        -0.7290
     40 O7          3.5445    2.1250   -0.0208 O.3       1 <0>        -0.4866
     41 H2         -0.9605    1.9038    0.0260 H         1 <0>         0.1253
     42 H3          1.1462    3.1727    0.0078 H         1 <0>         0.1291
     43 H4          1.2149   -1.7629   -0.0194 H         1 <0>         0.1313
     44 H5         -1.1480   -1.7262    0.5176 H         1 <0>         0.0752
     45 H6         -2.0556   -0.1951    0.5345 H         1 <0>         0.0739
     46 H7         -1.1923   -0.6888   -2.1089 H         1 <0>         0.4007
     47 H8         -2.7331   -1.5855   -3.6160 H         1 <0>         0.3988
     48 H9         -4.0903   -2.3963   -3.0473 H         1 <0>         0.4141
     49 H10         3.3777   -1.5459   -1.9833 H         1 <0>         0.1301
     50 H11         7.0584   -2.5975   -0.1099 H         1 <0>         0.1212
     51 H12         3.7511   -0.3237    2.8108 H         1 <0>         0.3807
     52 H13        10.3859   -2.4630    3.6153 H         1 <0>         0.1454
     53 H14        10.8780   -1.5736    5.8332 H         1 <0>         0.1390
     54 H15         7.1263    0.5034    5.8746 H         1 <0>         0.1428
     55 H16        10.4561   -1.5124    7.8996 H         1 <0>         0.4457
     56 H17         8.3067    1.7506    7.1041 H         1 <0>         0.4465
     57 H18         9.0651    1.5869    8.5943 H         1 <0>         0.4279
     58 H19         4.8261   -2.9342   -3.0971 H         1 <0>         0.0758
     59 H20         6.6789   -4.5035   -1.2496 H         1 <0>         0.0413
     60 H21         4.9292   -4.7903   -1.4071 H         1 <0>         0.0335
     61 H22         3.8902    2.3233    0.8602 H         1 <0>         0.3924
     62 H23        10.3089   -0.3012    9.0546 H         1 <0>         0.4278
@<TRIPOS>BOND
     1    1    6 ar
     2    1    2 ar
     3    1   41 1
     4    2    3 ar
     5    2   42 1
     6    3    4 ar
     7    3   40 1
     8    4    5 ar
     9    4   12 1
    10    5    6 ar
    11    5   43 1
    12    6    7 1
    13    7    8 1
    14    7   44 1
    15    7   45 1
    16    8    9 am
    17    8   46 1
    18    9   10 2
    19    9   11 am
    20   11   47 1
    21   11   48 1
    22   12   17 ar
    23   12   13 ar
    24   13   14 ar
    25   13   49 1
    26   14   15 ar
    27   14   32 1
    28   15   16 ar
    29   15   50 1
    30   16   17 ar
    31   16   19 1
    32   17   18 1
    33   18   51 1
    34   19   28 2
    35   19   20 1
    36   20   21 1
    37   20   22 1
    38   22   27 ar
    39   22   23 ar
    40   23   24 ar
    41   23   52 1
    42   24   25 ar
    43   24   53 1
    44   25   26 ar
    45   25   29 1
    46   26   27 ar
    47   26   54 1
    48   27   28 1
    49   29   30 2
    50   29   31 1
    51   30   55 1
    52   30   62 1
    53   31   56 1
    54   31   57 1
    55   32   33 1
    56   32   37 1
    57   32   58 1
    58   33   34 1
    59   33   59 1
    60   33   60 1
    61   34   35 2
    62   34   36 1
    63   37   38 2
    64   37   39 1
    65   40   61 1
@<TRIPOS>MOLECULE
CHEMBL206387__2
   62    65     0     0     0
SMALL
USER_CHARGES

@<TRIPOS>ATOM
      1 C1         -0.0167    1.3792    0.0096 C.ar      1 <0>        -0.0975
      2 C2          1.1674    2.0934    0.0022 C.ar      1 <0>        -0.1529
      3 C3          2.3804    1.4258   -0.0130 C.ar      1 <0>         0.1320
      4 C4          2.4031    0.0267   -0.0207 C.ar      1 <0>        -0.0112
      5 C5          1.2040   -0.6830   -0.0130 C.ar      1 <0>        -0.0780
      6 C6          0.0021   -0.0041    0.0020 C.ar      1 <0>        -0.1239
      7 C7         -1.2942   -0.7725    0.0107 C.3       1 <0>         0.1849
      8 N1         -1.7280   -1.0141   -1.3676 N.am      1 <0>        -0.7395
      9 C8         -2.8702   -1.6885   -1.6062 C.2       1 <0>         0.7060
     10 O1         -3.5407   -2.0964   -0.6775 O.2       1 <0>        -0.6010
     11 N2         -3.2693   -1.9108   -2.8742 N.am      1 <0>        -0.8683
     12 C9          3.6959   -0.6966   -0.0373 C.ar      1 <0>        -0.2346
     13 C10         4.0477   -1.4687   -1.1347 C.ar      1 <0>         0.0305
     14 C11         5.2560   -2.1492   -1.1588 C.ar      1 <0>        -0.0920
     15 C12         6.1282   -2.0729   -0.0979 C.ar      1 <0>        -0.0065
     16 C13         5.8053   -1.3019    1.0278 C.ar      1 <0>        -0.3037
     17 C14         4.5773   -0.5981    1.0612 C.ar      1 <0>         0.4288
     18 O2          4.2809    0.0846    2.0338 O.3       1 <0>        -0.5952
     19 C15         6.7041   -1.2233    2.1221 C.cat     1 <0>         0.5035
     20 N3          7.4975   -2.2263    2.5498 N.pl3     1 <0>        -0.5790
     21 H1          7.5474   -3.1144    2.1627 H         1 <0>         0.4641
     22 C16         8.2296   -1.7734    3.6350 C.ar      1 <0>         0.1572
     23 C17         9.1824   -2.3689    4.4544 C.ar      1 <0>        -0.0981
     24 C18         9.7495   -1.6598    5.4750 C.ar      1 <0>        -0.0502
     25 C19         9.3769   -0.3315    5.7043 C.ar      1 <0>        -0.1671
     26 C20         8.4226    0.2757    4.8890 C.ar      1 <0>        -0.0413
     27 C21         7.8490   -0.4444    3.8545 C.ar      1 <0>         0.0836
     28 N4          6.8999   -0.1331    2.8895 N.pl3     1 <0>        -0.5715
     29 C22         9.9945    0.4286    6.8113 C.cat     1 <0>         0.6116
     30 N5         10.4035   -0.2066    7.9086 N.pl3     1 <0>        -0.7625
     31 N6         10.1422    1.7488    6.7118 N.pl3     1 <0>        -0.7632
     32 C23         5.6173   -2.9825   -2.3613 C.3       1 <0>        -0.1012
     33 C24         6.9128   -2.4520   -2.9788 C.3       1 <0>        -0.1475
     34 C25         7.2087   -3.2055   -4.2499 C.2       1 <0>         0.4840
     35 O3          6.4534   -4.0852   -4.6270 O.co2     1 <0>        -0.6367
     36 O4          8.2033   -2.9353   -4.9012 O.co2     1 <0>        -0.7466
     37 C26         5.8122   -4.4159   -1.9390 C.2       1 <0>         0.4983
     38 O5          5.6709   -4.7315   -0.7698 O.co2     1 <0>        -0.7362
     39 O6          6.1113   -5.2599   -2.7664 O.co2     1 <0>        -0.6346
     40 O7          3.5445    2.1267   -0.0208 O.3       1 <0>        -0.4903
     41 H2         -0.9606    1.9037    0.0260 H         1 <0>         0.1214
     42 H3          1.1460    3.1732    0.0078 H         1 <0>         0.1235
     43 H4          1.2148   -1.7630   -0.0192 H         1 <0>         0.1286
     44 H5         -1.1479   -1.7261    0.5180 H         1 <0>         0.0748
     45 H6         -2.0555   -0.1950    0.5352 H         1 <0>         0.0723
     46 H7         -1.1931   -0.6887   -2.1085 H         1 <0>         0.4002
     47 H8         -2.7343   -1.5854   -3.6151 H         1 <0>         0.3984
     48 H9         -4.0913   -2.3961   -3.0459 H         1 <0>         0.4132
     49 H10         3.3753   -1.5407   -1.9768 H         1 <0>         0.1148
     50 H11         7.0651   -2.6092   -0.1320 H         1 <0>         0.1104
     51 H12         9.4745   -3.3945    4.2837 H         1 <0>         0.1606
     52 H13        10.4890   -2.1275    6.1081 H         1 <0>         0.1488
     53 H14         8.1323    1.3012    5.0635 H         1 <0>         0.1483
     54 H15        10.8088    0.2922    8.6351 H         1 <0>         0.4304
     55 H16         9.8444    2.2113    5.9128 H         1 <0>         0.4463
     56 H17        10.5475    2.2476    7.4383 H         1 <0>         0.4304
     57 H18         4.8147   -2.9263   -3.0967 H         1 <0>         0.0654
     58 H19         6.8007   -1.3912   -3.2029 H         1 <0>         0.0343
     59 H20         7.7337   -2.5900   -2.2752 H         1 <0>         0.0364
     60 H21         3.8900    2.3251    0.8603 H         1 <0>         0.3838
     61 H22        10.2960   -1.1679    7.9811 H         1 <0>         0.4464
     62 H23         6.4530    0.7218    2.7870 H         1 <0>         0.4572
@<TRIPOS>BOND
     1    1    6 ar
     2    1    2 ar
     3    1   41 1
     4    2    3 ar
     5    2   42 1
     6    3    4 ar
     7    3   40 1
     8    4    5 ar
     9    4   12 1
    10    5    6 ar
    11    5   43 1
    12    6    7 1
    13    7    8 1
    14    7   44 1
    15    7   45 1
    16    8    9 am
    17    8   46 1
    18    9   10 2
    19    9   11 am
    20   11   47 1
    21   11   48 1
    22   12   17 ar
    23   12   13 ar
    24   13   14 ar
    25   13   49 1
    26   14   15 ar
    27   14   32 1
    28   15   16 ar
    29   15   50 1
    30   16   17 ar
    31   16   19 1
    32   17   18 1
    33   19   28 2
    34   19   20 1
    35   20   21 1
    36   20   22 1
    37   22   27 ar
    38   22   23 ar
    39   23   24 ar
    40   23   51 1
    41   24   25 ar
    42   24   52 1
    43   25   26 ar
    44   25   29 1
    45   26   27 ar
    46   26   53 1
    47   27   28 1
    48   28   62 1
    49   29   30 2
    50   29   31 1
    51   30   54 1
    52   30   61 1
    53   31   55 1
    54   31   56 1
    55   32   33 1
    56   32   37 1
    57   32   57 1
    58   33   34 1
    59   33   58 1
    60   33   59 1
    61   34   35 2
    62   34   36 1
    63   37   38 2
    64   37   39 1
    65   40   60 1
@<TRIPOS>MOLECULE
CHEMBL206387__3
   62    65     0     0     0
SMALL
USER_CHARGES

@<TRIPOS>ATOM
      1 C1         -0.0167    1.3791    0.0096 C.ar      1 <0>        -0.0839
      2 C2          1.1672    2.0929    0.0022 C.ar      1 <0>        -0.1530
      3 C3          2.3804    1.4246   -0.0130 C.ar      1 <0>         0.1460
      4 C4          2.4027    0.0263   -0.0208 C.ar      1 <0>        -0.0556
      5 C5          1.2041   -0.6830   -0.0132 C.ar      1 <0>        -0.0685
      6 C6          0.0021   -0.0041    0.0020 C.ar      1 <0>        -0.1244
      7 C7         -1.2942   -0.7726    0.0103 C.3       1 <0>         0.1839
      8 N1         -1.7275   -1.0142   -1.3682 N.am      1 <0>        -0.7410
      9 C8         -2.8696   -1.6886   -1.6071 C.2       1 <0>         0.7067
     10 O1         -3.5404   -2.0965   -0.6787 O.2       1 <0>        -0.5999
     11 N2         -3.2682   -1.9109   -2.8753 N.am      1 <0>        -0.8676
     12 C9          3.6966   -0.6980   -0.0375 C.ar      1 <0>        -0.0818
     13 C10         4.0488   -1.4732   -1.1403 C.ar      1 <0>        -0.0607
     14 C11         5.2536   -2.1498   -1.1589 C.ar      1 <0>        -0.0264
     15 C12         6.1192   -2.0649   -0.0872 C.ar      1 <0>        -0.0446
     16 C13         5.7834   -1.2926    1.0261 C.ar      1 <0>        -0.1025
     17 C14         4.5680   -0.6001    1.0499 C.ar      1 <0>         0.1508
     18 O2          4.2349    0.1574    2.1256 O.3       1 <0>        -0.4777
     19 C15         6.7107   -1.2025    2.1728 C.2       1 <0>         0.3991
     20 N3          7.9270   -1.8270    2.2532 N.pl3     1 <0>        -0.5805
     21 H1          8.3257   -2.3983    1.5782 H         1 <0>         0.4440
     22 C16         8.4795   -1.4928    3.4719 C.ar      1 <0>         0.0943
     23 C17         9.6737   -1.8160    4.1057 C.ar      1 <0>        -0.0838
     24 C18         9.9483   -1.3180    5.3466 C.ar      1 <0>        -0.0809
     25 C19         9.0329   -0.4782    5.9936 C.ar      1 <0>        -0.1800
     26 C20         7.8327   -0.1438    5.3760 C.ar      1 <0>         0.0067
     27 C21         7.5478   -0.6502    4.1072 C.ar      1 <0>         0.0507
     28 N4          6.4954   -0.5082    3.2635 N.2       1 <0>        -0.4702
     29 C22         9.3434    0.0539    7.3372 C.cat     1 <0>         0.6129
     30 N5         10.1051   -0.6504    8.1729 N.pl3     1 <0>        -0.7660
     31 N6          8.8614    1.2377    7.7126 N.pl3     1 <0>        -0.7664
     32 C23         5.6244   -2.9859   -2.3566 C.3       1 <0>        -0.1087
     33 C24         6.9222   -2.4540   -2.9679 C.3       1 <0>        -0.1512
     34 C25         7.2278   -3.2106   -4.2348 C.2       1 <0>         0.4878
     35 O3          6.4772   -4.0935   -4.6138 O.co2     1 <0>        -0.6656
     36 O4          8.2257   -2.9399   -4.8809 O.co2     1 <0>        -0.7290
     37 C26         5.8205   -4.4175   -1.9286 C.2       1 <0>         0.5298
     38 O5          5.1282   -5.2980   -2.4102 O.co2     1 <0>        -0.6746
     39 O6          6.6714   -4.6951   -1.1007 O.co2     1 <0>        -0.7216
     40 O7          3.5445    2.1250   -0.0208 O.3       1 <0>        -0.4892
     41 H2         -0.9605    1.9038    0.0260 H         1 <0>         0.1256
     42 H3          1.1462    3.1727    0.0078 H         1 <0>         0.1287
     43 H4          1.2149   -1.7629   -0.0194 H         1 <0>         0.1327
     44 H5         -1.1480   -1.7262    0.5176 H         1 <0>         0.0760
     45 H6         -2.0556   -0.1951    0.5345 H         1 <0>         0.0741
     46 H7         -1.1923   -0.6888   -2.1089 H         1 <0>         0.4005
     47 H8         -2.7331   -1.5855   -3.6160 H         1 <0>         0.3987
     48 H9         -4.0903   -2.3963   -3.0473 H         1 <0>         0.4141
     49 H10         3.3777   -1.5459   -1.9833 H         1 <0>         0.1318
     50 H11         7.0584   -2.5975   -0.1099 H         1 <0>         0.1423
     51 H12         3.7511   -0.3237    2.8108 H         1 <0>         0.3825
     52 H13        10.3859   -2.4630    3.6153 H         1 <0>         0.1458
     53 H14        10.8780   -1.5736    5.8332 H         1 <0>         0.1388
     54 H15         7.1263    0.5034    5.8746 H         1 <0>         0.1423
     55 H16        10.4561   -1.5124    7.8996 H         1 <0>         0.4458
     56 H17         8.3067    1.7506    7.1041 H         1 <0>         0.4463
     57 H18         9.0651    1.5869    8.5943 H         1 <0>         0.4277
     58 H19         4.8261   -2.9341   -3.0971 H         1 <0>         0.0745
     59 H20         6.8088   -1.3942   -3.1960 H         1 <0>         0.0400
     60 H21         7.7392   -2.5876   -2.2588 H         1 <0>         0.0541
     61 H22         3.8902    2.3233    0.8602 H         1 <0>         0.3924
     62 H23        10.3089   -0.3012    9.0546 H         1 <0>         0.4276
@<TRIPOS>BOND
     1    1    6 ar
     2    1    2 ar
     3    1   41 1
     4    2    3 ar
     5    2   42 1
     6    3    4 ar
     7    3   40 1
     8    4    5 ar
     9    4   12 1
    10    5    6 ar
    11    5   43 1
    12    6    7 1
    13    7    8 1
    14    7   44 1
    15    7   45 1
    16    8    9 am
    17    8   46 1
    18    9   10 2
    19    9   11 am
    20   11   47 1
    21   11   48 1
    22   12   17 ar
    23   12   13 ar
    24   13   14 ar
    25   13   49 1
    26   14   15 ar
    27   14   32 1
    28   15   16 ar
    29   15   50 1
    30   16   17 ar
    31   16   19 1
    32   17   18 1
    33   18   51 1
    34   19   28 2
    35   19   20 1
    36   20   21 1
    37   20   22 1
    38   22   27 ar
    39   22   23 ar
    40   23   24 ar
    41   23   52 1
    42   24   25 ar
    43   24   53 1
    44   25   26 ar
    45   25   29 1
    46   26   27 ar
    47   26   54 1
    48   27   28 1
    49   29   30 2
    50   29   31 1
    51   30   55 1
    52   30   62 1
    53   31   56 1
    54   31   57 1
    55   32   33 1
    56   32   37 1
    57   32   58 1
    58   33   34 1
    59   33   59 1
    60   33   60 1
    61   34   35 2
    62   34   36 1
    63   37   38 2
    64   37   39 1
    65   40   61 1
@<TRIPOS>MOLECULE
CHEMBL192738
   76    78     0     0     0
SMALL
USER_CHARGES

@<TRIPOS>ATOM
      1 C1         -6.1151    2.0236   -3.0230 C.3       1 <0>        -0.1511
      2 C2         -5.2055    2.9910   -2.2629 C.3       1 <0>        -0.1359
      3 C3         -4.2014    3.6161   -3.2335 C.3       1 <0>         0.1451
      4 H1         -4.7373    4.0822   -4.0604 H         1 <0>         0.0855
      5 C4         -3.3745    4.6743   -2.5005 C.3       1 <0>        -0.1687
      6 N1         -3.3116    2.5748   -3.7535 N.am      1 <0>        -0.7202
      7 C5         -2.7050    2.7404   -4.9456 C.2       1 <0>         0.5630
      8 O1         -2.8961    3.7536   -5.5892 O.2       1 <0>        -0.5333
      9 C6         -1.8068    1.6893   -5.4704 C.ar      1 <0>        -0.0873
     10 C7         -1.1748    1.8623   -6.7001 C.ar      1 <0>        -0.1121
     11 C8         -0.3288    0.8689   -7.1913 C.ar      1 <0>        -0.0073
     12 C9         -0.1177   -0.2954   -6.4498 C.ar      1 <0>        -0.1448
     13 C10        -0.7490   -0.4641   -5.2264 C.ar      1 <0>         0.2197
     14 C11        -1.5868    0.5257   -4.7319 C.ar      1 <0>        -0.1600
     15 N2         -0.5360   -1.6306   -4.4871 N.pl3     1 <0>        -0.8729
     16 C12         0.3430    1.0477   -8.4948 C.2       1 <0>         0.0582
     17 C13         1.7085    0.9231   -8.5812 C.2       1 <0>         0.0625
     18 N3          2.3466    1.0771   -9.7368 N.2       1 <0>        -0.5015
     19 C14         1.6871    1.3553  -10.8423 C.2       1 <0>         0.3619
     20 C15         0.2286    1.4967  -10.7962 C.2       1 <0>         0.4970
     21 O2         -0.4036    1.7536  -11.8068 O.2       1 <0>        -0.5292
     22 N4         -0.4018    1.3315   -9.6122 N.am      1 <0>        -0.4581
     23 C16        -1.8585    1.4585   -9.5217 C.3       1 <0>         0.0774
     24 C17        -2.2282    2.9128   -9.3825 C.2       1 <0>         0.5093
     25 O3         -1.3604    3.7598   -9.3610 O.2       1 <0>        -0.5074
     26 N5         -3.5232    3.2723   -9.2820 N.am      1 <0>        -0.7227
     27 C18        -3.8827    4.6860   -9.1467 C.3       1 <0>         0.1484
     28 C19        -5.3811    4.8167   -9.0536 C.ar      1 <0>        -0.0329
     29 C20        -6.1322    4.9684  -10.2056 C.ar      1 <0>        -0.0966
     30 C21        -7.5044    5.0890  -10.1271 C.ar      1 <0>        -0.0590
     31 C22        -8.1344    5.0573   -8.8827 C.ar      1 <0>        -0.1528
     32 C23        -7.3714    4.9036   -7.7248 C.ar      1 <0>        -0.0592
     33 C24        -6.0004    4.7789   -7.8171 C.ar      1 <0>        -0.0909
     34 C25        -9.6056    5.1866   -8.7912 C.cat     1 <0>         0.6009
     35 N6        -10.2040    5.1560   -7.6022 N.pl3     1 <0>        -0.7617
     36 N7        -10.3310    5.3335   -9.8980 N.pl3     1 <0>        -0.7612
     37 N8          2.3677    1.5138  -12.0418 N.pl3     1 <0>        -0.6811
     38 C26         3.8252    1.3717  -12.0814 C.3       1 <0>         0.1474
     39 C27         4.2606    0.9720  -13.4926 C.3       1 <0>        -0.1642
     40 C28         4.4778    2.7032  -11.7042 C.3       1 <0>        -0.1646
     41 H2         -6.6517    2.5655   -3.8018 H         1 <0>         0.0503
     42 H3         -5.5113    1.2380   -3.4771 H         1 <0>         0.0552
     43 H4         -6.8304    1.5783   -2.3315 H         1 <0>         0.0585
     44 H5         -5.8093    3.7766   -1.8088 H         1 <0>         0.0806
     45 H6         -4.6689    2.4491   -1.4841 H         1 <0>         0.0711
     46 H7         -2.8386    4.2081   -1.6737 H         1 <0>         0.0595
     47 H8         -2.6592    5.1196   -3.1920 H         1 <0>         0.0631
     48 H9         -4.0365    5.4490   -2.1137 H         1 <0>         0.0668
     49 H10        -3.1591    1.7663   -3.2398 H         1 <0>         0.4000
     50 H11        -1.3401    2.7636   -7.2716 H         1 <0>         0.1382
     51 H12         0.5374   -1.0655   -6.8296 H         1 <0>         0.1358
     52 H13        -2.0727    0.3934   -3.7765 H         1 <0>         0.1256
     53 H14         0.0528   -2.3212   -4.8296 H         1 <0>         0.4042
     54 H15        -0.9769   -1.7498   -3.6314 H         1 <0>         0.4020
     55 H16         2.2757    0.6953   -7.6908 H         1 <0>         0.1722
     56 H17        -2.3153    1.0522  -10.4241 H         1 <0>         0.1261
     57 H18        -2.2180    0.9075   -8.6527 H         1 <0>         0.1265
     58 H19        -4.2173    2.5949   -9.2992 H         1 <0>         0.4012
     59 H20        -3.4258    5.0923   -8.2443 H         1 <0>         0.0977
     60 H21        -3.5232    5.2371  -10.0157 H         1 <0>         0.0876
     61 H22        -5.6433    4.9927  -11.1683 H         1 <0>         0.1509
     62 H23        -8.0895    5.2080  -11.0270 H         1 <0>         0.1397
     63 H24        -7.8532    4.8787   -6.7585 H         1 <0>         0.1385
     64 H25        -5.4090    4.6558   -6.9218 H         1 <0>         0.1548
     65 H26        -9.6755    5.0489   -6.7959 H         1 <0>         0.4442
     66 H27        -9.8951    5.3558  -10.7642 H         1 <0>         0.4446
     67 H28       -11.2954    5.4183   -9.8381 H         1 <0>         0.4338
     68 H29         1.8782    1.7186  -12.8538 H         1 <0>         0.4156
     69 H30         4.1346    0.6023  -11.3740 H         1 <0>         0.0950
     70 H31         3.9513    1.7415  -14.1999 H         1 <0>         0.0616
     71 H32         5.3451    0.8663  -13.5220 H         1 <0>         0.0776
     72 H33         3.7957    0.0235  -13.7613 H         1 <0>         0.0625
     73 H34         4.1677    2.9880  -10.6989 H         1 <0>         0.0622
     74 H35         5.5623    2.5975  -11.7336 H         1 <0>         0.0682
     75 H36         4.1685    3.4727  -12.4116 H         1 <0>         0.0550
     76 H37       -11.1684    5.2407   -7.5423 H         1 <0>         0.4338
@<TRIPOS>BOND
     1    1    2 1
     2    1   41 1
     3    1   42 1
     4    1   43 1
     5    2    3 1
     6    2   44 1
     7    2   45 1
     8    3    4 1
     9    3    5 1
    10    3    6 1
    11    5   46 1
    12    5   47 1
    13    5   48 1
    14    6    7 am
    15    6   49 1
    16    7    8 2
    17    7    9 1
    18    9   14 ar
    19    9   10 ar
    20   10   11 ar
    21   10   50 1
    22   11   12 ar
    23   11   16 1
    24   12   13 ar
    25   12   51 1
    26   13   14 ar
    27   13   15 1
    28   14   52 1
    29   15   53 1
    30   15   54 1
    31   16   22 1
    32   16   17 2
    33   17   18 1
    34   17   55 1
    35   18   19 2
    36   19   20 1
    37   19   37 1
    38   20   21 2
    39   20   22 am
    40   22   23 1
    41   23   24 1
    42   23   56 1
    43   23   57 1
    44   24   25 2
    45   24   26 am
    46   26   27 1
    47   26   58 1
    48   27   28 1
    49   27   59 1
    50   27   60 1
    51   28   33 ar
    52   28   29 ar
    53   29   30 ar
    54   29   61 1
    55   30   31 ar
    56   30   62 1
    57   31   32 ar
    58   31   34 1
    59   32   33 ar
    60   32   63 1
    61   33   64 1
    62   34   35 2
    63   34   36 1
    64   35   65 1
    65   35   76 1
    66   36   66 1
    67   36   67 1
    68   37   38 1
    69   37   68 1
    70   38   39 1
    71   38   40 1
    72   38   69 1
    73   39   70 1
    74   39   71 1
    75   39   72 1
    76   40   73 1
    77   40   74 1
    78   40   75 1
@<TRIPOS>MOLECULE
CHEMBL132151
   67    70     0     0     0
SMALL
USER_CHARGES

@<TRIPOS>ATOM
      1 C1          0.4845    2.1547    0.0024 C.ar      1 <0>        -0.1188
      2 C2          1.7665    2.6613   -0.1013 C.ar      1 <0>        -0.1175
      3 C3          2.8500    1.8029   -0.1127 C.ar      1 <0>        -0.1129
      4 C4          2.6516    0.4380   -0.0201 C.ar      1 <0>        -0.0850
      5 C5          1.3696   -0.0685    0.0845 C.ar      1 <0>        -0.1129
      6 C6          0.2860    0.7897    0.0945 C.ar      1 <0>        -0.1176
      7 C7          3.8327   -0.4977   -0.0336 C.3       1 <0>        -0.0932
      8 C8          4.3165   -0.7291    1.3994 C.3       1 <0>         0.1345
      9 N1          5.4648   -1.6388    1.3862 N.pl3     1 <0>        -0.6808
     10 C9          6.0789   -1.9986    2.5781 C.2       1 <0>         0.3750
     11 C10         7.2318   -2.9036    2.5707 C.2       1 <0>         0.4990
     12 O1          7.6648   -3.3503    1.5218 O.2       1 <0>        -0.5200
     13 N2          7.8059   -3.2329    3.7489 N.am      1 <0>        -0.4551
     14 C11         7.2918   -2.7106    4.9099 C.2       1 <0>         0.0897
     15 C12         6.2081   -1.8644    4.8732 C.2       1 <0>         0.1259
     16 N3          5.6331   -1.5250    3.7235 N.2       1 <0>        -0.4966
     17 Cl1         5.5818   -1.2208    6.3589 Cl        1 <0>        -0.0035
     18 C13         7.9062   -3.0599    6.2066 C.ar      1 <0>        -0.0106
     19 C14         9.2633   -2.8128    6.4286 C.ar      1 <0>        -0.1647
     20 C15         9.8345   -3.1397    7.6411 C.ar      1 <0>        -0.0700
     21 C16         9.0685   -3.7120    8.6398 C.ar      1 <0>        -0.1834
     22 C17         7.7174   -3.9625    8.4292 C.ar      1 <0>         0.2221
     23 C18         7.1320   -3.6326    7.2165 C.ar      1 <0>        -0.1577
     24 N4          6.9482   -4.5413    9.4416 N.pl3     1 <0>        -0.8748
     25 C19         8.9599   -4.1346    3.7869 C.3       1 <0>         0.0802
     26 C20        10.2208   -3.3476    3.5381 C.2       1 <0>         0.5094
     27 O2         10.1613   -2.1513    3.3478 O.2       1 <0>        -0.5080
     28 N5         11.4145   -3.9732    3.5271 N.am      1 <0>        -0.7269
     29 C21        12.6403   -3.2081    3.2853 C.3       1 <0>         0.1475
     30 C22        13.8273   -4.1357    3.3243 C.ar      1 <0>        -0.0375
     31 C23        14.4785   -4.3710    4.5221 C.ar      1 <0>        -0.0947
     32 C24        15.5662   -5.2188    4.5644 C.ar      1 <0>        -0.0578
     33 C25        16.0088   -5.8397    3.3960 C.ar      1 <0>        -0.1502
     34 C26        15.3475   -5.5987    2.1914 C.ar      1 <0>        -0.0575
     35 C27        14.2578   -4.7528    2.1633 C.ar      1 <0>        -0.0949
     36 C28        17.1750   -6.7497    3.4342 C.cat     1 <0>         0.6000
     37 N6         17.5950   -7.3408    2.3176 N.pl3     1 <0>        -0.7604
     38 N7         17.8043   -6.9775    4.5853 N.pl3     1 <0>        -0.7606
     39 H1         -0.3618    2.8255    0.0159 H         1 <0>         0.1229
     40 H2          1.9215    3.7276   -0.1736 H         1 <0>         0.1233
     41 H3          3.8515    2.1987   -0.1944 H         1 <0>         0.1219
     42 H4          1.2146   -1.1349    0.1565 H         1 <0>         0.1220
     43 H5         -0.7156    0.3940    0.1758 H         1 <0>         0.1234
     44 H6          3.5373   -1.4494   -0.4754 H         1 <0>         0.0813
     45 H7          4.6378   -0.0581   -0.6224 H         1 <0>         0.0810
     46 H8          4.6119    0.2226    1.8412 H         1 <0>         0.0760
     47 H9          3.5114   -1.1687    1.9881 H         1 <0>         0.0763
     48 H10         5.7960   -1.9896    0.5448 H         1 <0>         0.4199
     49 H11         9.8652   -2.3663    5.6510 H         1 <0>         0.1210
     50 H12        10.8837   -2.9482    7.8107 H         1 <0>         0.1232
     51 H13         9.5215   -3.9656    9.5869 H         1 <0>         0.1235
     52 H14         6.0815   -3.8219    7.0525 H         1 <0>         0.1282
     53 H15         7.3569   -4.7684   10.2915 H         1 <0>         0.4012
     54 H16         6.0055   -4.7161    9.2946 H         1 <0>         0.4016
     55 H17         9.0164   -4.6115    4.7654 H         1 <0>         0.1331
     56 H18         8.8501   -4.8979    3.0165 H         1 <0>         0.1300
     57 H19        11.4621   -4.9300    3.6793 H         1 <0>         0.4045
     58 H20        12.5838   -2.7313    2.3067 H         1 <0>         0.0911
     59 H21        12.7501   -2.4449    4.0556 H         1 <0>         0.0919
     60 H22        14.1349   -3.8898    5.4258 H         1 <0>         0.1519
     61 H23        16.0741   -5.4011    5.4999 H         1 <0>         0.1408
     62 H24        15.6855   -6.0761    1.2836 H         1 <0>         0.1407
     63 H25        13.7426   -4.5685    1.2322 H         1 <0>         0.1516
     64 H26        17.1365   -7.1749    1.4790 H         1 <0>         0.4447
     65 H27        17.4983   -6.5469    5.3988 H         1 <0>         0.4445
     66 H28        18.5687   -7.5740    4.6103 H         1 <0>         0.4344
     67 H29        18.3595   -7.9374    2.3426 H         1 <0>         0.4345
@<TRIPOS>BOND
     1    1    6 ar
     2    1    2 ar
     3    1   39 1
     4    2    3 ar
     5    2   40 1
     6    3    4 ar
     7    3   41 1
     8    4    5 ar
     9    4    7 1
    10    5    6 ar
    11    5   42 1
    12    6   43 1
    13    7    8 1
    14    7   44 1
    15    7   45 1
    16    8    9 1
    17    8   46 1
    18    8   47 1
    19    9   10 1
    20    9   48 1
    21   10   16 2
    22   10   11 1
    23   11   12 2
    24   11   13 am
    25   13   14 1
    26   13   25 1
    27   14   15 2
    28   14   18 1
    29   15   16 1
    30   15   17 1
    31   18   23 ar
    32   18   19 ar
    33   19   20 ar
    34   19   49 1
    35   20   21 ar
    36   20   50 1
    37   21   22 ar
    38   21   51 1
    39   22   23 ar
    40   22   24 1
    41   23   52 1
    42   24   53 1
    43   24   54 1
    44   25   26 1
    45   25   55 1
    46   25   56 1
    47   26   27 2
    48   26   28 am
    49   28   29 1
    50   28   57 1
    51   29   30 1
    52   29   58 1
    53   29   59 1
    54   30   35 ar
    55   30   31 ar
    56   31   32 ar
    57   31   60 1
    58   32   33 ar
    59   32   61 1
    60   33   34 ar
    61   33   36 1
    62   34   35 ar
    63   34   62 1
    64   35   63 1
    65   36   37 2
    66   36   38 1
    67   37   64 1
    68   37   67 1
    69   38   65 1
    70   38   66 1
@<TRIPOS>MOLECULE
CHEMBL542434
   64    67     0     0     0
SMALL
USER_CHARGES

@<TRIPOS>ATOM
      1 C1         -0.0173    1.4248    0.0099 C.3       1 <0>         0.0283
      2 O1          0.0021   -0.0041    0.0020 O.3       1 <0>        -0.3776
      3 C2          0.6734   -0.5824    1.1231 C.3       1 <0>         0.0893
      4 H1          1.4575    0.0968    1.4575 H         1 <0>         0.0823
      5 C3         -0.3306   -0.7824    2.2571 C.3       1 <0>        -0.1282
      6 C4          0.3986   -1.3864    3.4666 C.3       1 <0>         0.1341
      7 C5          0.9268   -2.7401    3.0407 C.2       1 <0>         0.5226
      8 O2          1.1216   -3.6201    3.8522 O.2       1 <0>        -0.4823
      9 N1          1.1720   -2.9343    1.7339 N.am      1 <0>        -0.6023
     10 C6          1.3030   -1.8959    0.7000 C.3       1 <0>         0.1369
     11 H2          2.3558   -1.7420    0.4633 H         1 <0>         0.0898
     12 C7          0.5688   -2.5001   -0.5168 C.3       1 <0>        -0.1139
     13 C8          0.9424   -4.0003   -0.4250 C.3       1 <0>        -0.1297
     14 C9          1.3531   -4.2207    1.0446 C.3       1 <0>         0.1213
     15 C10         0.4706   -5.2696    1.6709 C.2       1 <0>         0.5118
     16 O3         -0.2459   -4.9799    2.6056 O.2       1 <0>        -0.4944
     17 N2          0.4777   -6.5295    1.1924 N.am      1 <0>        -0.7327
     18 C11        -0.3801   -7.5491    1.8012 C.3       1 <0>         0.1495
     19 C12        -0.1854   -8.8615    1.0865 C.ar      1 <0>        -0.0357
     20 C13        -0.9732   -9.1738   -0.0071 C.ar      1 <0>        -0.0960
     21 C14        -0.8001  -10.3739   -0.6654 C.ar      1 <0>        -0.0576
     22 C15         0.1722  -11.2731   -0.2265 C.ar      1 <0>        -0.1513
     23 C16         0.9637  -10.9520    0.8767 C.ar      1 <0>        -0.0573
     24 C17         0.7843   -9.7464    1.5232 C.ar      1 <0>        -0.0957
     25 C18         0.3628  -12.5621   -0.9276 C.cat     1 <0>         0.6003
     26 N3          1.2915  -13.4182   -0.5064 N.pl3     1 <0>        -0.7606
     27 N4         -0.3944  -12.8659   -1.9798 N.pl3     1 <0>        -0.7607
     28 C19        -0.5766   -1.5513    4.6339 C.3       1 <0>        -0.0893
     29 C20         0.1487   -2.1442    5.8144 C.ar      1 <0>        -0.1061
     30 C21         0.2122   -3.5164    5.9686 C.ar      1 <0>        -0.0433
     31 C22         0.8775   -4.0603    7.0514 C.ar      1 <0>        -0.1352
     32 C23         1.4796   -3.2318    7.9799 C.ar      1 <0>        -0.1143
     33 C24         1.4168   -1.8596    7.8253 C.ar      1 <0>        -0.1334
     34 C25         0.7552   -1.3159    6.7401 C.ar      1 <0>        -0.1177
     35 O4          1.4835   -0.5404    3.8530 O.3       1 <0>        -0.5397
     36 H3          1.0053    1.8021    0.0021 H         1 <0>         0.0459
     37 H4         -0.5445    1.7859   -0.8732 H         1 <0>         0.0904
     38 H5         -0.5275    1.7763    0.9067 H         1 <0>         0.0447
     39 H6         -0.7640    0.1784    2.5347 H         1 <0>         0.0880
     40 H7         -1.1195   -1.4601    1.9309 H         1 <0>         0.0906
     41 H8         -0.5087   -2.3635   -0.4254 H         1 <0>         0.0845
     42 H9          0.9376   -2.0657   -1.4459 H         1 <0>         0.0930
     43 H10         0.0826   -4.6209   -0.6774 H         1 <0>         0.0802
     44 H11         1.7790   -4.2235   -1.0872 H         1 <0>         0.0893
     45 H12         2.3969   -4.5297    1.1003 H         1 <0>         0.1008
     46 H13         1.0508   -6.7611    0.4448 H         1 <0>         0.4010
     47 H14        -0.1165   -7.6653    2.8524 H         1 <0>         0.0889
     48 H15        -1.4229   -7.2424    1.7199 H         1 <0>         0.0882
     49 H16        -1.7255   -8.4769   -0.3459 H         1 <0>         0.1510
     50 H17        -1.4162  -10.6169   -1.5186 H         1 <0>         0.1405
     51 H18         1.7178  -11.6440    1.2214 H         1 <0>         0.1404
     52 H19         1.3991   -9.4949    2.3748 H         1 <0>         0.1510
     53 H20         1.8431  -13.1968    0.2602 H         1 <0>         0.4446
     54 H21        -1.0710  -12.2423   -2.2867 H         1 <0>         0.4445
     55 H22        -0.2695  -13.7109   -2.4395 H         1 <0>         0.4344
     56 H23        -0.9826   -0.5777    4.9085 H         1 <0>         0.0902
     57 H24        -1.3898   -2.2136    4.3372 H         1 <0>         0.0853
     58 H25        -0.2582   -4.1637    5.2432 H         1 <0>         0.1297
     59 H26         0.9265   -5.1324    7.1722 H         1 <0>         0.1139
     60 H27         1.9987   -3.6567    8.8263 H         1 <0>         0.1169
     61 H28         1.8869   -1.2123    8.5509 H         1 <0>         0.1197
     62 H29         0.7094   -0.2438    6.6173 H         1 <0>         0.1209
     63 H30         1.9853   -0.8664    4.6126 H         1 <0>         0.3862
     64 H31         1.4164  -14.2632   -0.9660 H         1 <0>         0.4344
@<TRIPOS>BOND
     1    1    2 1
     2    1   36 1
     3    1   37 1
     4    1   38 1
     5    2    3 1
     6    3    4 1
     7    3   10 1
     8    3    5 1
     9    5    6 1
    10    5   39 1
    11    5   40 1
    12    6    7 1
    13    6   28 1
    14    6   35 1
    15    7    8 2
    16    7    9 am
    17    9   14 1
    18    9   10 1
    19   10   11 1
    20   10   12 1
    21   12   13 1
    22   12   41 1
    23   12   42 1
    24   13   14 1
    25   13   43 1
    26   13   44 1
    27   14   15 1
    28   14   45 1
    29   15   16 2
    30   15   17 am
    31   17   18 1
    32   17   46 1
    33   18   19 1
    34   18   47 1
    35   18   48 1
    36   19   24 ar
    37   19   20 ar
    38   20   21 ar
    39   20   49 1
    40   21   22 ar
    41   21   50 1
    42   22   23 ar
    43   22   25 1
    44   23   24 ar
    45   23   51 1
    46   24   52 1
    47   25   26 2
    48   25   27 1
    49   26   53 1
    50   26   64 1
    51   27   54 1
    52   27   55 1
    53   28   29 1
    54   28   56 1
    55   28   57 1
    56   29   34 ar
    57   29   30 ar
    58   30   31 ar
    59   30   58 1
    60   31   32 ar
    61   31   59 1
    62   32   33 ar
    63   32   60 1
    64   33   34 ar
    65   33   61 1
    66   34   62 1
    67   35   63 1
@<TRIPOS>MOLECULE
CHEMBL542434__1
   64    67     0     0     0
SMALL
USER_CHARGES

@<TRIPOS>ATOM
      1 C1         -0.0173    1.4248    0.0099 C.3       1 <0>         0.0282
      2 O1          0.0021   -0.0041    0.0020 O.3       1 <0>        -0.3771
      3 C2          0.6734   -0.5824    1.1231 C.3       1 <0>         0.0898
      4 H1          1.4575    0.0968    1.4575 H         1 <0>         0.0823
      5 C3         -0.3306   -0.7824    2.2571 C.3       1 <0>        -0.1299
      6 C4          0.3986   -1.3864    3.4666 C.3       1 <0>         0.1344
      7 C5          0.9268   -2.7401    3.0407 C.2       1 <0>         0.5179
      8 O2          1.1223   -3.6199    3.8523 O.2       1 <0>        -0.5012
      9 N1          1.1720   -2.9343    1.7339 N.am      1 <0>        -0.5875
     10 C6          1.3030   -1.8959    0.7000 C.3       1 <0>         0.1365
     11 H2          2.3558   -1.7420    0.4633 H         1 <0>         0.0887
     12 C7          0.5688   -2.5001   -0.5168 C.3       1 <0>        -0.1145
     13 C8          0.9424   -4.0003   -0.4250 C.3       1 <0>        -0.1282
     14 C9          1.3531   -4.2207    1.0446 C.3       1 <0>         0.1196
     15 C10         2.7962   -4.6478    1.1216 C.2       1 <0>         0.5082
     16 O3          3.6053   -3.9503    1.6959 O.2       1 <0>        -0.5082
     17 N2          3.1878   -5.8050    0.5522 N.am      1 <0>        -0.7321
     18 C11         4.5908   -6.2202    0.6270 C.3       1 <0>         0.1470
     19 C12         4.7629   -7.5386   -0.0823 C.ar      1 <0>        -0.0359
     20 C13         4.6094   -8.7223    0.6171 C.ar      1 <0>        -0.0958
     21 C14         4.7662   -9.9326   -0.0265 C.ar      1 <0>        -0.0572
     22 C15         5.0797   -9.9611   -1.3856 C.ar      1 <0>        -0.1512
     23 C16         5.2328   -8.7639   -2.0855 C.ar      1 <0>        -0.0575
     24 C17         5.0683   -7.5601   -1.4315 C.ar      1 <0>        -0.0959
     25 C18         5.2497  -11.2556   -2.0819 C.cat     1 <0>         0.6003
     26 N3          5.5490  -11.2796   -3.3791 N.pl3     1 <0>        -0.7607
     27 N4          5.1035  -12.3965   -1.4113 N.pl3     1 <0>        -0.7606
     28 C19        -0.5766   -1.5513    4.6339 C.3       1 <0>        -0.0915
     29 C20         0.1487   -2.1442    5.8144 C.ar      1 <0>        -0.1071
     30 C21         0.2122   -3.5164    5.9686 C.ar      1 <0>        -0.0473
     31 C22         0.8775   -4.0603    7.0514 C.ar      1 <0>        -0.1327
     32 C23         1.4796   -3.2318    7.9799 C.ar      1 <0>        -0.1133
     33 C24         1.4168   -1.8596    7.8253 C.ar      1 <0>        -0.1308
     34 C25         0.7552   -1.3159    6.7401 C.ar      1 <0>        -0.1165
     35 O4          1.4835   -0.5404    3.8530 O.3       1 <0>        -0.5357
     36 H3          1.0053    1.8021    0.0021 H         1 <0>         0.0455
     37 H4         -0.5445    1.7859   -0.8732 H         1 <0>         0.0908
     38 H5         -0.5275    1.7763    0.9067 H         1 <0>         0.0452
     39 H6         -0.7640    0.1784    2.5347 H         1 <0>         0.0907
     40 H7         -1.1195   -1.4601    1.9309 H         1 <0>         0.0924
     41 H8         -0.5087   -2.3635   -0.4254 H         1 <0>         0.0887
     42 H9          0.9376   -2.0657   -1.4459 H         1 <0>         0.0919
     43 H10         0.0826   -4.6209   -0.6774 H         1 <0>         0.0916
     44 H11         1.7790   -4.2235   -1.0872 H         1 <0>         0.0805
     45 H12         0.7148   -4.9793    1.4976 H         1 <0>         0.1116
     46 H13         2.5408   -6.3628    0.0929 H         1 <0>         0.4019
     47 H14         5.2185   -5.4668    0.1511 H         1 <0>         0.0891
     48 H15         4.8823   -6.3289    1.6717 H         1 <0>         0.0887
     49 H16         4.3667   -8.6989    1.6693 H         1 <0>         0.1510
     50 H17         4.6468  -10.8560    0.5208 H         1 <0>         0.1406
     51 H18         5.4758   -8.7794   -3.1377 H         1 <0>         0.1407
     52 H19         5.1825   -6.6327   -1.9730 H         1 <0>         0.1512
     53 H20         5.6555  -10.4484   -3.8677 H         1 <0>         0.4445
     54 H21         4.8855  -12.3791   -0.4663 H         1 <0>         0.4446
     55 H22         5.2150  -13.2451   -1.8677 H         1 <0>         0.4344
     56 H23        -0.9826   -0.5777    4.9085 H         1 <0>         0.0942
     57 H24        -1.3898   -2.2136    4.3372 H         1 <0>         0.0850
     58 H25        -0.2582   -4.1637    5.2432 H         1 <0>         0.1214
     59 H26         0.9265   -5.1324    7.1722 H         1 <0>         0.1162
     60 H27         1.9987   -3.6567    8.8263 H         1 <0>         0.1183
     61 H28         1.8869   -1.2123    8.5509 H         1 <0>         0.1208
     62 H29         0.7094   -0.2438    6.6173 H         1 <0>         0.1221
     63 H30         1.9853   -0.8664    4.6126 H         1 <0>         0.3875
     64 H31         5.6604  -12.1282   -3.8355 H         1 <0>         0.4344
@<TRIPOS>BOND
     1    1    2 1
     2    1   36 1
     3    1   37 1
     4    1   38 1
     5    2    3 1
     6    3    4 1
     7    3   10 1
     8    3    5 1
     9    5    6 1
    10    5   39 1
    11    5   40 1
    12    6    7 1
    13    6   28 1
    14    6   35 1
    15    7    8 2
    16    7    9 am
    17    9   14 1
    18    9   10 1
    19   10   11 1
    20   10   12 1
    21   12   13 1
    22   12   41 1
    23   12   42 1
    24   13   14 1
    25   13   43 1
    26   13   44 1
    27   14   15 1
    28   14   45 1
    29   15   16 2
    30   15   17 am
    31   17   18 1
    32   17   46 1
    33   18   19 1
    34   18   47 1
    35   18   48 1
    36   19   24 ar
    37   19   20 ar
    38   20   21 ar
    39   20   49 1
    40   21   22 ar
    41   21   50 1
    42   22   23 ar
    43   22   25 1
    44   23   24 ar
    45   23   51 1
    46   24   52 1
    47   25   26 2
    48   25   27 1
    49   26   53 1
    50   26   64 1
    51   27   54 1
    52   27   55 1
    53   28   29 1
    54   28   56 1
    55   28   57 1
    56   29   34 ar
    57   29   30 ar
    58   30   31 ar
    59   30   58 1
    60   31   32 ar
    61   31   59 1
    62   32   33 ar
    63   32   60 1
    64   33   34 ar
    65   33   61 1
    66   34   62 1
    67   35   63 1
@<TRIPOS>MOLECULE
CHEMBL386870
   74    78     0     0     0
SMALL
USER_CHARGES

@<TRIPOS>ATOM
      1 C1         -0.0187    1.5258    0.0104 C.3       1 <0>        -0.1259
      2 C2          0.0021   -0.0041    0.0020 C.3       1 <0>        -0.1108
      3 C3          0.7421   -0.5109    1.2415 C.3       1 <0>        -0.1170
      4 C4         -1.4117   -0.5257    0.0127 C.ar      1 <0>        -0.0179
      5 C5         -2.4710    0.3614    0.0218 C.ar      1 <0>        -0.0758
      6 C6         -3.7818   -0.1113    0.0313 C.ar      1 <0>        -0.0772
      7 C7         -4.0244   -1.4863    0.0316 C.ar      1 <0>         0.1320
      8 C8         -2.9471   -2.3782    0.0223 C.ar      1 <0>        -0.0989
      9 C9         -1.6409   -1.8871    0.0076 C.ar      1 <0>        -0.0385
     10 C10        -3.1913   -3.8361    0.0229 C.2       1 <0>         0.1643
     11 C11        -4.1559   -4.4687    0.7382 C.2       1 <0>        -0.1303
     12 C12        -4.0380   -5.8928    0.4420 C.ar      1 <0>        -0.1946
     13 C13        -4.7230   -7.0469    0.8520 C.ar      1 <0>         0.5138
     14 N1         -4.3587   -8.2295    0.3842 N.ar      1 <0>        -0.5225
     15 H1         -4.8411   -9.0188    0.6761 H         1 <0>         0.4384
     16 C14        -3.3568   -8.3701   -0.4702 C.ar      1 <0>         0.1031
     17 C15        -2.6388   -7.2988   -0.9192 C.ar      1 <0>        -0.1342
     18 C16        -2.9687   -6.0202   -0.4661 C.ar      1 <0>         0.1808
     19 N2         -2.4788   -4.7622   -0.7070 N.pl3     1 <0>        -0.5366
     20 N3         -5.7796   -6.9480    1.7461 N.pl3     1 <0>        -0.8165
     21 O1         -5.2988   -1.9549    0.0412 O.3       1 <0>        -0.4872
     22 C17        -4.9166    0.8440    0.0416 C.ar      1 <0>        -0.0282
     23 C18        -4.9427    1.8892    0.9632 C.ar      1 <0>        -0.0957
     24 C19        -6.0009    2.7749    0.9682 C.ar      1 <0>        -0.1158
     25 C20        -7.0349    2.6265    0.0611 C.ar      1 <0>        -0.1005
     26 C21        -7.0144    1.5908   -0.8554 C.ar      1 <0>        -0.1107
     27 C22        -5.9576    0.7030   -0.8739 C.ar      1 <0>        -0.0815
     28 C23        -8.1448    1.4352   -1.8397 C.3       1 <0>         0.1629
     29 N4         -7.8406    2.1924   -3.0564 N.am      1 <0>        -0.7230
     30 C24        -8.7151    2.1995   -4.0820 C.2       1 <0>         0.4858
     31 O2         -9.7537    1.5791   -3.9976 O.2       1 <0>        -0.5313
     32 C25        -8.4022    2.9785   -5.3335 C.3       1 <0>         0.0998
     33 H2         -7.4364    2.6612   -5.7270 H         1 <0>         0.1259
     34 C26        -8.3536    4.4722   -5.0058 C.3       1 <0>        -0.1071
     35 C27        -7.9208    5.2407   -6.2278 C.ar      1 <0>        -0.0825
     36 C28        -6.5781    5.4775   -6.4557 C.ar      1 <0>        -0.1166
     37 C29        -6.1811    6.1825   -7.5765 C.ar      1 <0>        -0.1181
     38 C30        -7.1268    6.6502   -8.4697 C.ar      1 <0>        -0.1203
     39 C31        -8.4694    6.4126   -8.2423 C.ar      1 <0>        -0.1191
     40 C32        -8.8662    5.7040   -7.1237 C.ar      1 <0>        -0.1026
     41 O3         -9.4169    2.7379   -6.3105 O.3       1 <0>        -0.5295
     42 C33         0.7074   -0.4901   -1.2379 C.2       1 <0>         0.5084
     43 O4          1.8687   -0.1786   -1.4402 O.co2     1 <0>        -0.6808
     44 O5          0.1168   -1.1947   -2.0386 O.co2     1 <0>        -0.6937
     45 H3          1.0039    1.9031    0.0027 H         1 <0>         0.0658
     46 H4         -0.5459    1.8868   -0.8726 H         1 <0>         0.0503
     47 H5         -0.5289    1.8773    0.9072 H         1 <0>         0.0456
     48 H6          0.2319   -0.1594    2.1383 H         1 <0>         0.0442
     49 H7          0.7568   -1.6008    1.2356 H         1 <0>         0.0441
     50 H8          1.7647   -0.1336    1.2338 H         1 <0>         0.0663
     51 H9         -2.2824    1.4248    0.0220 H         1 <0>         0.1362
     52 H10        -0.8073   -2.5736   -0.0037 H         1 <0>         0.1254
     53 H11        -4.8734   -4.0065    1.3999 H         1 <0>         0.1727
     54 H12        -3.1004   -9.3588   -0.8212 H         1 <0>         0.2019
     55 H13        -1.8260   -7.4389   -1.6164 H         1 <0>         0.1738
     56 H14        -6.0455   -6.0803    2.0886 H         1 <0>         0.4395
     57 H15        -6.2522   -7.7466    2.0286 H         1 <0>         0.4192
     58 H16        -5.6750   -2.0895   -0.8394 H         1 <0>         0.3836
     59 H17        -4.1364    2.0056    1.6723 H         1 <0>         0.1266
     60 H18        -6.0222    3.5852    1.6819 H         1 <0>         0.1273
     61 H19        -7.8613    3.3217    0.0688 H         1 <0>         0.1237
     62 H20        -5.9401   -0.1023   -1.5933 H         1 <0>         0.1182
     63 H21        -8.2671    0.3811   -2.0888 H         1 <0>         0.0757
     64 H22        -9.0665    1.8133   -1.3973 H         1 <0>         0.0777
     65 H23        -7.0099    2.6886   -3.1239 H         1 <0>         0.4042
     66 H24        -9.3432    4.8087   -4.6966 H         1 <0>         0.0832
     67 H25        -7.6425    4.6440   -4.1978 H         1 <0>         0.0876
     68 H26        -5.8393    5.1121   -5.7578 H         1 <0>         0.1219
     69 H27        -5.1321    6.3681   -7.7542 H         1 <0>         0.1232
     70 H28        -6.8167    7.2016   -9.3450 H         1 <0>         0.1215
     71 H29        -9.2083    6.7784   -8.9399 H         1 <0>         0.1219
     72 H30        -9.9149    5.5151   -6.9479 H         1 <0>         0.1201
     73 H31       -10.3046    2.9969   -6.0276 H         1 <0>         0.3818
     74 H32        -1.7396   -4.5557   -1.3002 H         1 <0>         0.4419
@<TRIPOS>BOND
     1    1    2 1
     2    1   45 1
     3    1   46 1
     4    1   47 1
     5    2    3 1
     6    2    4 1
     7    2   42 1
     8    3   48 1
     9    3   49 1
    10    3   50 1
    11    4    9 ar
    12    4    5 ar
    13    5    6 ar
    14    5   51 1
    15    6    7 ar
    16    6   22 1
    17    7    8 ar
    18    7   21 1
    19    8    9 ar
    20    8   10 1
    21    9   52 1
    22   10   19 1
    23   10   11 2
    24   11   12 1
    25   11   53 1
    26   12   18 ar
    27   12   13 ar
    28   13   14 ar
    29   13   20 1
    30   14   15 1
    31   14   16 ar
    32   16   17 ar
    33   16   54 1
    34   17   18 ar
    35   17   55 1
    36   18   19 1
    37   19   74 1
    38   20   56 1
    39   20   57 1
    40   21   58 1
    41   22   27 ar
    42   22   23 ar
    43   23   24 ar
    44   23   59 1
    45   24   25 ar
    46   24   60 1
    47   25   26 ar
    48   25   61 1
    49   26   27 ar
    50   26   28 1
    51   27   62 1
    52   28   29 1
    53   28   63 1
    54   28   64 1
    55   29   30 am
    56   29   65 1
    57   30   31 2
    58   30   32 1
    59   32   33 1
    60   32   34 1
    61   32   41 1
    62   34   35 1
    63   34   66 1
    64   34   67 1
    65   35   40 ar
    66   35   36 ar
    67   36   37 ar
    68   36   68 1
    69   37   38 ar
    70   37   69 1
    71   38   39 ar
    72   38   70 1
    73   39   40 ar
    74   39   71 1
    75   40   72 1
    76   41   73 1
    77   42   43 2
    78   42   44 1
@<TRIPOS>MOLECULE
CHEMBL542435
   71    74     0     0     0
SMALL
USER_CHARGES

@<TRIPOS>ATOM
      1 C1         -0.1189    1.5204   -0.0445 C.3       1 <0>        -0.1499
      2 C2          0.0021   -0.0041    0.0020 C.3       1 <0>        -0.1332
      3 C3          0.7182   -0.4975   -1.2568 C.3       1 <0>        -0.0769
      4 H1          1.6721    0.0147   -1.3832 H         1 <0>         0.0961
      5 C4         -0.1762   -0.3101   -2.5072 C.3       1 <0>        -0.1274
      6 C5         -0.8492   -1.6808   -2.7260 C.3       1 <0>         0.1218
      7 N1         -0.3896   -2.5583   -1.6391 N.am      1 <0>        -0.5906
      8 C6          0.9199   -2.0277   -1.2083 C.3       1 <0>         0.1344
      9 H2          1.6909   -2.3219   -1.9206 H         1 <0>         0.0867
     10 C7          1.2990   -2.4870    0.1866 C.3       1 <0>         0.0858
     11 H3          2.0167   -3.3037    0.1097 H         1 <0>         0.0754
     12 C8          0.0788   -2.9671    0.9705 C.3       1 <0>        -0.1359
     13 C9         -0.5597   -4.1477    0.2237 C.3       1 <0>         0.1241
     14 C10        -1.0298   -3.6244   -1.1299 C.2       1 <0>         0.5066
     15 O1         -1.9436   -4.1512   -1.7285 O.2       1 <0>        -0.5055
     16 C11        -1.7568   -4.6786    1.0148 C.3       1 <0>        -0.0547
     17 C12        -2.2999   -5.9106    0.3378 C.ar      1 <0>        -0.0995
     18 C13        -3.2797   -5.7922   -0.6301 C.ar      1 <0>        -0.0619
     19 C14        -3.7779   -6.9222   -1.2512 C.ar      1 <0>        -0.1337
     20 C15        -3.2959   -8.1706   -0.9046 C.ar      1 <0>        -0.1167
     21 C16        -2.3155   -8.2890    0.0626 C.ar      1 <0>        -0.1329
     22 C17        -1.8143   -7.1586    0.6806 C.ar      1 <0>        -0.1059
     23 N2          0.4312   -5.2159    0.0363 N.3       1 <0>        -0.8153
     24 O2          1.9040   -1.3988    0.8879 O.3       1 <0>        -0.3619
     25 C18         2.8699   -1.8001    1.8616 C.3       1 <0>         0.0182
     26 C19        -0.4358   -2.2509   -4.0583 C.2       1 <0>         0.5086
     27 O3          0.1660   -3.3028   -4.1074 O.2       1 <0>        -0.5117
     28 N3         -0.7349   -1.5920   -5.1953 N.am      1 <0>        -0.7319
     29 C20        -0.3330   -2.1463   -6.4905 C.3       1 <0>         0.1473
     30 C21        -0.7843   -1.2239   -7.5935 C.ar      1 <0>        -0.0361
     31 C22        -2.0339   -1.3911   -8.1632 C.ar      1 <0>        -0.0958
     32 C23        -2.4528   -0.5502   -9.1737 C.ar      1 <0>        -0.0570
     33 C24        -1.6134    0.4707   -9.6204 C.ar      1 <0>        -0.1510
     34 C25        -0.3546    0.6345   -9.0414 C.ar      1 <0>        -0.0575
     35 C26         0.0504   -0.2098   -8.0281 C.ar      1 <0>        -0.0959
     36 C27        -2.0561    1.3758  -10.7041 C.cat     1 <0>         0.6003
     37 N4         -1.2529    2.3493  -11.1283 N.pl3     1 <0>        -0.7606
     38 N5         -3.2578    1.2168  -11.2550 N.pl3     1 <0>        -0.7605
     39 H4          0.8763    1.9625   -0.0932 H         1 <0>         0.0547
     40 H5         -0.6900    1.8129   -0.9256 H         1 <0>         0.0463
     41 H6         -0.6291    1.8720    0.8523 H         1 <0>         0.0545
     42 H7          0.5732   -0.2965    0.8832 H         1 <0>         0.1140
     43 H8         -0.9930   -0.4462    0.0508 H         1 <0>         0.0544
     44 H9         -0.9290    0.4564   -2.3229 H         1 <0>         0.0930
     45 H10         0.4322   -0.0445   -3.3717 H         1 <0>         0.0789
     46 H11        -1.9333   -1.5744   -2.6859 H         1 <0>         0.1098
     47 H12         0.3873   -3.2883    1.9653 H         1 <0>         0.0917
     48 H13        -0.6435   -2.1551    1.0549 H         1 <0>         0.0889
     49 H14        -1.4406   -4.9300    2.0272 H         1 <0>         0.0917
     50 H15        -2.5330   -3.9145    1.0558 H         1 <0>         0.0775
     51 H16        -3.6562   -4.8168   -0.9009 H         1 <0>         0.1239
     52 H17        -4.5439   -6.8298   -2.0069 H         1 <0>         0.1145
     53 H18        -3.6857   -9.0536   -1.3893 H         1 <0>         0.1167
     54 H19        -1.9392   -9.2644    0.3336 H         1 <0>         0.1194
     55 H20        -1.0456   -7.2507    1.4337 H         1 <0>         0.1241
     56 H21         0.0285   -6.0008   -0.4534 H         1 <0>         0.3564
     57 H22         1.2485   -4.8706   -0.4442 H         1 <0>         0.3411
     58 H23         3.2825   -0.9171    2.3495 H         1 <0>         0.0903
     59 H24         2.3922   -2.4368    2.6063 H         1 <0>         0.0473
     60 H25         3.6717   -2.3526    1.3717 H         1 <0>         0.0453
     61 H26        -1.2162   -0.7508   -5.1561 H         1 <0>         0.4019
     62 H27         0.7519   -2.2466   -6.5219 H         1 <0>         0.0887
     63 H28        -0.7925   -3.1255   -6.6250 H         1 <0>         0.0883
     64 H29        -2.6827   -2.1819   -7.8165 H         1 <0>         0.1509
     65 H30        -3.4282   -0.6823   -9.6182 H         1 <0>         0.1407
     66 H31         0.2998    1.4227   -9.3831 H         1 <0>         0.1407
     67 H32         1.0230   -0.0816   -7.5764 H         1 <0>         0.1510
     68 H33        -0.3774    2.4651  -10.7269 H         1 <0>         0.4445
     69 H34        -3.8430    0.5077  -10.9459 H         1 <0>         0.4446
     70 H35        -3.5480    1.8102  -11.9653 H         1 <0>         0.4345
     71 H36        -1.5431    2.9426  -11.8386 H         1 <0>         0.4344
@<TRIPOS>BOND
     1    1    2 1
     2    1   39 1
     3    1   40 1
     4    1   41 1
     5    2    3 1
     6    2   42 1
     7    2   43 1
     8    3    4 1
     9    3    8 1
    10    3    5 1
    11    5    6 1
    12    5   44 1
    13    5   45 1
    14    6    7 1
    15    6   26 1
    16    6   46 1
    17    7   14 am
    18    7    8 1
    19    8    9 1
    20    8   10 1
    21   10   11 1
    22   10   12 1
    23   10   24 1
    24   12   13 1
    25   12   47 1
    26   12   48 1
    27   13   14 1
    28   13   16 1
    29   13   23 1
    30   14   15 2
    31   16   17 1
    32   16   49 1
    33   16   50 1
    34   17   22 ar
    35   17   18 ar
    36   18   19 ar
    37   18   51 1
    38   19   20 ar
    39   19   52 1
    40   20   21 ar
    41   20   53 1
    42   21   22 ar
    43   21   54 1
    44   22   55 1
    45   23   56 1
    46   23   57 1
    47   24   25 1
    48   25   58 1
    49   25   59 1
    50   25   60 1
    51   26   27 2
    52   26   28 am
    53   28   29 1
    54   28   61 1
    55   29   30 1
    56   29   62 1
    57   29   63 1
    58   30   35 ar
    59   30   31 ar
    60   31   32 ar
    61   31   64 1
    62   32   33 ar
    63   32   65 1
    64   33   34 ar
    65   33   36 1
    66   34   35 ar
    67   34   66 1
    68   35   67 1
    69   36   37 2
    70   36   38 1
    71   37   68 1
    72   37   71 1
    73   38   69 1
    74   38   70 1
@<TRIPOS>MOLECULE
CHEMBL542435__1
   72    75     0     0     0
SMALL
USER_CHARGES

@<TRIPOS>ATOM
      1 C1          0.1635    1.5137   -0.1032 C.3       1 <0>        -0.1636
      2 C2          0.0021   -0.0041    0.0020 C.3       1 <0>        -0.1107
      3 C3          0.7421   -0.5109    1.2415 C.3       1 <0>        -0.0908
      4 H1          0.3700   -0.0250    2.1435 H         1 <0>         0.1041
      5 C4          2.2767   -0.3169    1.0946 C.3       1 <0>        -0.1252
      6 C5          2.7059   -1.5449    0.2614 C.3       1 <0>         0.1301
      7 N1          1.6458   -2.5503    0.3909 N.am      1 <0>        -0.5665
      8 C6          0.6436   -2.0492    1.3577 C.3       1 <0>         0.1211
      9 H2          0.8612   -2.3872    2.3709 H         1 <0>         0.1140
     10 C7         -0.7272   -2.5283    0.8721 C.3       1 <0>         0.0833
     11 H3         -1.4995   -2.1930    1.5644 H         1 <0>         0.1089
     12 C8         -0.7134   -4.0552    0.8170 C.3       1 <0>        -0.1706
     13 C9          0.3179   -4.5805   -0.1667 C.3       1 <0>         0.0731
     14 C10         1.5432   -3.7198   -0.2579 C.2       1 <0>         0.5306
     15 O1          2.4728   -4.0933   -0.9414 O.2       1 <0>        -0.4874
     16 C11        -0.3247   -4.6675   -1.5524 C.3       1 <0>        -0.0873
     17 C12         0.6444   -5.3016   -2.5167 C.ar      1 <0>        -0.1321
     18 C13         1.5305   -4.5121   -3.2255 C.ar      1 <0>        -0.0572
     19 C14         2.4195   -5.0938   -4.1100 C.ar      1 <0>        -0.1093
     20 C15         2.4227   -6.4649   -4.2852 C.ar      1 <0>        -0.0989
     21 C16         1.5372   -7.2545   -3.5757 C.ar      1 <0>        -0.1135
     22 C17         0.6512   -6.6733   -2.6881 C.ar      1 <0>        -0.1412
     23 N2          0.7204   -5.9310    0.2483 N.4       1 <0>        -0.6278
     24 O2         -0.9872   -2.0015   -0.4306 O.3       1 <0>        -0.3646
     25 C18        -2.3731   -1.7862   -0.7045 C.3       1 <0>         0.0143
     26 C19         4.0036   -2.0968    0.7928 C.2       1 <0>         0.5136
     27 O3          4.0489   -3.2285    1.2265 O.2       1 <0>        -0.5192
     28 N3          5.1138   -1.3327    0.7861 N.am      1 <0>        -0.7262
     29 C20         6.3754   -1.8692    1.3028 C.3       1 <0>         0.1503
     30 C21         7.4530   -0.8227    1.1825 C.ar      1 <0>        -0.0452
     31 C22         8.2163   -0.7491    0.0309 C.ar      1 <0>        -0.0950
     32 C23         9.2048    0.2065   -0.0851 C.ar      1 <0>        -0.0573
     33 C24         9.4335    1.1000    0.9617 C.ar      1 <0>        -0.1447
     34 C25         8.6601    1.0208    2.1202 C.ar      1 <0>        -0.0574
     35 C26         7.6712    0.0640    2.2218 C.ar      1 <0>        -0.0950
     36 C27        10.4923    2.1269    0.8440 C.cat     1 <0>         0.5981
     37 N4         10.7082    2.9782    1.8447 N.pl3     1 <0>        -0.7585
     38 N5         11.2291    2.1997   -0.2626 N.pl3     1 <0>        -0.7585
     39 H4          1.2217    1.7618   -0.1851 H         1 <0>         0.0502
     40 H5         -0.3637    1.8748   -0.9863 H         1 <0>         0.0590
     41 H6         -0.2526    1.9860    0.7867 H         1 <0>         0.0556
     42 H7         -1.0562   -0.2521    0.0839 H         1 <0>         0.0884
     43 H8          0.4181   -0.4763   -0.8879 H         1 <0>         0.0722
     44 H9          2.4988    0.6073    0.5612 H         1 <0>         0.1038
     45 H10         2.7613   -0.3254    2.0709 H         1 <0>         0.0870
     46 H11         2.8219   -1.2610   -0.7846 H         1 <0>         0.1119
     47 H12        -0.4862   -4.4436    1.8098 H         1 <0>         0.1046
     48 H13        -1.7004   -4.4079    0.5176 H         1 <0>         0.1139
     49 H14        -1.2295   -5.2726   -1.4960 H         1 <0>         0.1079
     50 H15        -0.5786   -3.6656   -1.8987 H         1 <0>         0.1326
     51 H16         1.5280   -3.4408   -3.0885 H         1 <0>         0.1179
     52 H17         3.1113   -4.4769   -4.6643 H         1 <0>         0.1258
     53 H18         3.1168   -6.9193   -4.9768 H         1 <0>         0.1292
     54 H19         1.5395   -8.3258   -3.7129 H         1 <0>         0.1302
     55 H20        -0.0381   -7.2905   -2.1310 H         1 <0>         0.1197
     56 H21        -0.0872   -6.5359    0.2535 H         1 <0>         0.4387
     57 H22         1.4062   -6.2911   -0.3982 H         1 <0>         0.4429
     58 H23        -2.7801   -1.0770    0.0164 H         1 <0>         0.0576
     59 H24        -2.4864   -1.3857   -1.7119 H         1 <0>         0.0989
     60 H25        -2.9100   -2.7316   -0.6268 H         1 <0>         0.0492
     61 H26         5.0776   -0.4276    0.4393 H         1 <0>         0.4044
     62 H27         6.2514   -2.1444    2.3501 H         1 <0>         0.0900
     63 H28         6.6585   -2.7502    0.7267 H         1 <0>         0.0896
     64 H29         8.0382   -1.4413   -0.7787 H         1 <0>         0.1499
     65 H30         9.8004    0.2625   -0.9843 H         1 <0>         0.1420
     66 H31         8.8325    1.7094    2.9341 H         1 <0>         0.1423
     67 H32         7.0691    0.0043    3.1164 H         1 <0>         0.1504
     68 H33        10.1715    2.9252    2.6509 H         1 <0>         0.4445
     69 H34        11.0718    1.5795   -0.9917 H         1 <0>         0.4446
     70 H35        11.9232    2.8729   -0.3398 H         1 <0>         0.4362
     71 H36        11.4023    3.6514    1.7676 H         1 <0>         0.4362
     72 H37         1.1185   -5.8935    1.1747 H         1 <0>         0.4350
@<TRIPOS>BOND
     1    1    2 1
     2    1   39 1
     3    1   40 1
     4    1   41 1
     5    2    3 1
     6    2   42 1
     7    2   43 1
     8    3    4 1
     9    3    8 1
    10    3    5 1
    11    5    6 1
    12    5   44 1
    13    5   45 1
    14    6    7 1
    15    6   26 1
    16    6   46 1
    17    7   14 am
    18    7    8 1
    19    8    9 1
    20    8   10 1
    21   10   11 1
    22   10   12 1
    23   10   24 1
    24   12   13 1
    25   12   47 1
    26   12   48 1
    27   13   14 1
    28   13   16 1
    29   13   23 1
    30   14   15 2
    31   16   17 1
    32   16   49 1
    33   16   50 1
    34   17   22 ar
    35   17   18 ar
    36   18   19 ar
    37   18   51 1
    38   19   20 ar
    39   19   52 1
    40   20   21 ar
    41   20   53 1
    42   21   22 ar
    43   21   54 1
    44   22   55 1
    45   23   56 1
    46   23   57 1
    47   23   72 1
    48   24   25 1
    49   25   58 1
    50   25   59 1
    51   25   60 1
    52   26   27 2
    53   26   28 am
    54   28   29 1
    55   28   61 1
    56   29   30 1
    57   29   62 1
    58   29   63 1
    59   30   35 ar
    60   30   31 ar
    61   31   32 ar
    62   31   64 1
    63   32   33 ar
    64   32   65 1
    65   33   34 ar
    66   33   36 1
    67   34   35 ar
    68   34   66 1
    69   35   67 1
    70   36   37 2
    71   36   38 1
    72   37   68 1
    73   37   71 1
    74   38   69 1
    75   38   70 1
@<TRIPOS>MOLECULE
CHEMBL542435__2
   71    74     0     0     0
SMALL
USER_CHARGES

@<TRIPOS>ATOM
      1 C1         -0.7426    0.7932    0.2541 C.3       1 <0>        -0.1582
      2 C2         -0.0413   -0.5666    0.2568 C.3       1 <0>        -0.1243
      3 C3          0.6773   -0.7725   -1.0782 C.3       1 <0>        -0.0797
      4 H1          1.5913   -0.1796   -1.1121 H         1 <0>         0.0918
      5 C4         -0.2527   -0.3963   -2.2541 C.3       1 <0>        -0.1293
      6 C5         -0.4171   -1.7021   -3.0665 C.3       1 <0>         0.1202
      7 N1         -0.1258   -2.7754   -2.0986 N.am      1 <0>        -0.6014
      8 C6          0.9963   -2.2628   -1.2913 C.3       1 <0>         0.1352
      9 H2          1.9261   -2.3613   -1.8516 H         1 <0>         0.0858
     10 C7          1.1303   -2.9964    0.0302 C.3       1 <0>         0.0803
     11 H3          1.9297   -3.7329   -0.0508 H         1 <0>         0.0750
     12 C8         -0.1672   -3.7077    0.4101 C.3       1 <0>        -0.1356
     13 C9         -0.5151   -4.7322   -0.6799 C.3       1 <0>         0.1239
     14 C10        -0.7453   -3.9570   -1.9680 C.2       1 <0>         0.5113
     15 O1         -1.4594   -4.3917   -2.8467 O.2       1 <0>        -0.4977
     16 C11        -1.7889   -5.4882   -0.2969 C.3       1 <0>        -0.0542
     17 C12        -2.0532   -6.5726   -1.3095 C.ar      1 <0>        -0.0966
     18 C13        -2.8200   -6.3023   -2.4275 C.ar      1 <0>        -0.0591
     19 C14        -3.0624   -7.2969   -3.3563 C.ar      1 <0>        -0.1363
     20 C15        -2.5376   -8.5617   -3.1675 C.ar      1 <0>        -0.1181
     21 C16        -1.7700   -8.8318   -2.0500 C.ar      1 <0>        -0.1344
     22 C17        -1.5240   -7.8360   -1.1233 C.ar      1 <0>        -0.1062
     23 N2          0.5965   -5.6770   -0.8516 N.3       1 <0>        -0.8175
     24 O2          1.4633   -2.0569    1.0542 O.3       1 <0>        -0.3524
     25 C18         2.2479   -2.6065    2.1144 C.3       1 <0>         0.0087
     26 C19        -1.8275   -1.8271   -3.5825 C.2       1 <0>         0.5230
     27 O3         -2.6955   -2.2851   -2.8700 O.2       1 <0>        -0.4988
     28 N3         -2.1243   -1.4299   -4.8358 N.am      1 <0>        -0.7308
     29 C20        -3.4953   -1.5514   -5.3373 C.3       1 <0>         0.1501
     30 C21        -3.5590   -1.0415   -6.7540 C.ar      1 <0>        -0.0352
     31 C22        -3.8291    0.2939   -6.9940 C.ar      1 <0>        -0.0963
     32 C23        -3.8892    0.7668   -8.2888 C.ar      1 <0>        -0.0577
     33 C24        -3.6764   -0.1048   -9.3572 C.ar      1 <0>        -0.1517
     34 C25        -3.4039   -1.4503   -9.1085 C.ar      1 <0>        -0.0574
     35 C26        -3.3415   -1.9098   -7.8090 C.ar      1 <0>        -0.0953
     36 C27        -3.7398    0.3956  -10.7482 C.cat     1 <0>         0.6005
     37 N4         -3.5363   -0.4386  -11.7658 N.pl3     1 <0>        -0.7607
     38 N5         -4.0004    1.6801  -10.9824 N.pl3     1 <0>        -0.7608
     39 H4         -0.0042    1.5826    0.1134 H         1 <0>         0.0526
     40 H5         -1.4687    0.8259   -0.5582 H         1 <0>         0.0500
     41 H6         -1.2545    0.9399    1.2052 H         1 <0>         0.0544
     42 H7          0.6848   -0.5993    1.0691 H         1 <0>         0.1160
     43 H8         -0.7797   -1.3559    0.3975 H         1 <0>         0.0638
     44 H9         -1.2191   -0.0586   -1.8798 H         1 <0>         0.0905
     45 H10         0.2078    0.3771   -2.8689 H         1 <0>         0.0852
     46 H11         0.2949   -1.7296   -3.8914 H         1 <0>         0.0916
     47 H12        -0.0366   -4.2198    1.3634 H         1 <0>         0.0898
     48 H13        -0.9721   -2.9775    0.4944 H         1 <0>         0.0896
     49 H14        -1.6636   -5.9349    0.6894 H         1 <0>         0.0890
     50 H15        -2.6306   -4.7959   -0.2779 H         1 <0>         0.0791
     51 H16        -3.2301   -5.3141   -2.5750 H         1 <0>         0.1287
     52 H17        -3.6621   -7.0859   -4.2294 H         1 <0>         0.1118
     53 H18        -2.7275   -9.3390   -3.8928 H         1 <0>         0.1154
     54 H19        -1.3602   -9.8201   -1.9023 H         1 <0>         0.1187
     55 H20        -0.9212   -8.0459   -0.2522 H         1 <0>         0.1235
     56 H21         0.3849   -6.3584   -1.5650 H         1 <0>         0.3548
     57 H22         1.4557   -5.1906   -1.0596 H         1 <0>         0.3393
     58 H23         2.4583   -1.8307    2.8506 H         1 <0>         0.0889
     59 H24         1.6983   -3.4190    2.5898 H         1 <0>         0.0460
     60 H25         3.1858   -2.9892    1.7117 H         1 <0>         0.0439
     61 H26        -1.4300   -1.0636   -5.4056 H         1 <0>         0.3998
     62 H27        -3.7995   -2.5978   -5.3138 H         1 <0>         0.0894
     63 H28        -4.1653   -0.9641   -4.7094 H         1 <0>         0.0878
     64 H29        -3.9937    0.9676   -6.1661 H         1 <0>         0.1510
     65 H30        -4.1008    1.8094   -8.4748 H         1 <0>         0.1405
     66 H31        -3.2386   -2.1301   -9.9313 H         1 <0>         0.1403
     67 H32        -3.1267   -2.9503   -7.6150 H         1 <0>         0.1508
     68 H33        -3.3464   -1.3744  -11.5952 H         1 <0>         0.4446
     69 H34        -4.1487    2.2879  -10.2411 H         1 <0>         0.4445
     70 H35        -4.0420    2.0082  -11.8943 H         1 <0>         0.4343
     71 H36        -3.5779   -0.1106  -12.6777 H         1 <0>         0.4343
@<TRIPOS>BOND
     1    1    2 1
     2    1   39 1
     3    1   40 1
     4    1   41 1
     5    2    3 1
     6    2   42 1
     7    2   43 1
     8    3    4 1
     9    3    8 1
    10    3    5 1
    11    5    6 1
    12    5   44 1
    13    5   45 1
    14    6    7 1
    15    6   26 1
    16    6   46 1
    17    7   14 am
    18    7    8 1
    19    8    9 1
    20    8   10 1
    21   10   11 1
    22   10   12 1
    23   10   24 1
    24   12   13 1
    25   12   47 1
    26   12   48 1
    27   13   14 1
    28   13   16 1
    29   13   23 1
    30   14   15 2
    31   16   17 1
    32   16   49 1
    33   16   50 1
    34   17   22 ar
    35   17   18 ar
    36   18   19 ar
    37   18   51 1
    38   19   20 ar
    39   19   52 1
    40   20   21 ar
    41   20   53 1
    42   21   22 ar
    43   21   54 1
    44   22   55 1
    45   23   56 1
    46   23   57 1
    47   24   25 1
    48   25   58 1
    49   25   59 1
    50   25   60 1
    51   26   27 2
    52   26   28 am
    53   28   29 1
    54   28   61 1
    55   29   30 1
    56   29   62 1
    57   29   63 1
    58   30   35 ar
    59   30   31 ar
    60   31   32 ar
    61   31   64 1
    62   32   33 ar
    63   32   65 1
    64   33   34 ar
    65   33   36 1
    66   34   35 ar
    67   34   66 1
    68   35   67 1
    69   36   37 2
    70   36   38 1
    71   37   68 1
    72   37   71 1
    73   38   69 1
    74   38   70 1
@<TRIPOS>MOLECULE
CHEMBL542435__3
   72    75     0     0     0
SMALL
USER_CHARGES

@<TRIPOS>ATOM
      1 C1          0.5706    2.3038    1.0835 C.3       1 <0>        -0.1595
      2 C2          0.3782    0.8811    0.5546 C.3       1 <0>        -0.1321
      3 C3          0.9416   -0.1195    1.5658 C.3       1 <0>        -0.0894
      4 H1          0.5578    0.0948    2.5632 H         1 <0>         0.0961
      5 C4          2.4887   -0.0722    1.5636 C.3       1 <0>        -0.1137
      6 C5          2.8844   -1.5702    1.6619 C.3       1 <0>         0.1235
      7 N1          1.8594   -2.2317    0.8356 N.am      1 <0>        -0.5743
      8 C6          0.5819   -1.5555    1.1527 C.3       1 <0>         0.1244
      9 H2          0.0644   -2.0694    1.9628 H         1 <0>         0.1127
     10 C7         -0.2527   -1.5528   -0.1317 C.3       1 <0>         0.0829
     11 H3         -1.2229   -1.0958    0.0631 H         1 <0>         0.1091
     12 C8         -0.4484   -2.9978   -0.5873 C.3       1 <0>        -0.1705
     13 C9          0.8688   -3.6760   -0.9236 C.3       1 <0>         0.0707
     14 C10         2.0068   -3.2176   -0.0532 C.2       1 <0>         0.5291
     15 O1          3.0869   -3.7592   -0.1578 O.2       1 <0>        -0.4819
     16 C11         1.2185   -3.3767   -2.3827 C.3       1 <0>        -0.0859
     17 C12         2.4582   -4.1415   -2.7692 C.ar      1 <0>        -0.1375
     18 C13         3.7052   -3.5728   -2.5896 C.ar      1 <0>        -0.0463
     19 C14         4.8424   -4.2743   -2.9441 C.ar      1 <0>        -0.1096
     20 C15         4.7325   -5.5447   -3.4778 C.ar      1 <0>        -0.1013
     21 C16         3.4854   -6.1138   -3.6565 C.ar      1 <0>        -0.1195
     22 C17         2.3485   -5.4140   -3.2981 C.ar      1 <0>        -0.1424
     23 N2          0.7068   -5.1277   -0.7675 N.4       1 <0>        -0.6279
     24 O2          0.4306   -0.8142   -1.1465 O.3       1 <0>        -0.3620
     25 C18        -0.4377   -0.1740   -2.0837 C.3       1 <0>         0.0141
     26 C19         4.2600   -1.7979    1.0902 C.2       1 <0>         0.5212
     27 O3          4.4201   -1.8269   -0.1117 O.2       1 <0>        -0.4944
     28 N3          5.3124   -1.9693    1.9145 N.am      1 <0>        -0.7274
     29 C20         6.6497   -2.1906    1.3587 C.3       1 <0>         0.1533
     30 C21         7.6406   -2.3513    2.4828 C.ar      1 <0>        -0.0436
     31 C22         8.2842   -1.2401    2.9978 C.ar      1 <0>        -0.0950
     32 C23         9.1927   -1.3805    4.0266 C.ar      1 <0>        -0.0569
     33 C24         9.4616   -2.6464    4.5479 C.ar      1 <0>        -0.1456
     34 C25         8.8089   -3.7629    4.0245 C.ar      1 <0>        -0.0583
     35 C26         7.8986   -3.6086    2.9992 C.ar      1 <0>        -0.0957
     36 C27        10.4352   -2.8042    5.6509 C.cat     1 <0>         0.5982
     37 N4         10.6897   -4.0136    6.1463 N.pl3     1 <0>        -0.7593
     38 N5         11.0568   -1.7369    6.1480 N.pl3     1 <0>        -0.7582
     39 H4          1.6333    2.4959    1.2312 H         1 <0>         0.0543
     40 H5          0.1693    3.0166    0.3631 H         1 <0>         0.0593
     41 H6          0.0463    2.4125    2.0329 H         1 <0>         0.0543
     42 H7         -0.6845    0.6890    0.4069 H         1 <0>         0.0615
     43 H8          0.9025    0.7724   -0.3948 H         1 <0>         0.1040
     44 H9          2.8597    0.3644    0.6363 H         1 <0>         0.0929
     45 H10         2.8586    0.4815    2.4266 H         1 <0>         0.0938
     46 H11         2.8315   -1.9169    2.6939 H         1 <0>         0.1061
     47 H12        -0.9408   -3.5562    0.2089 H         1 <0>         0.1038
     48 H13        -1.0869   -3.0070   -1.4707 H         1 <0>         0.1129
     49 H14         0.3905   -3.6787   -3.0241 H         1 <0>         0.1049
     50 H15         1.3990   -2.3083   -2.5013 H         1 <0>         0.1333
     51 H16         3.7911   -2.5802   -2.1726 H         1 <0>         0.1360
     52 H17         5.8166   -3.8297   -2.8044 H         1 <0>         0.1227
     53 H18         5.6208   -6.0925   -3.7554 H         1 <0>         0.1260
     54 H19         3.3995   -7.1062   -4.0738 H         1 <0>         0.1276
     55 H20         1.3744   -5.8600   -3.4343 H         1 <0>         0.1172
     56 H21        -0.0154   -5.4546   -1.3917 H         1 <0>         0.4396
     57 H22         1.5766   -5.5888   -0.9885 H         1 <0>         0.4422
     58 H23        -1.0867    0.5263   -1.5580 H         1 <0>         0.0585
     59 H24         0.1574    0.3652   -2.8207 H         1 <0>         0.0986
     60 H25        -1.0461   -0.9253   -2.5872 H         1 <0>         0.0479
     61 H26         5.1844   -1.9461    2.8757 H         1 <0>         0.4012
     62 H27         6.6444   -3.0931    0.7474 H         1 <0>         0.0892
     63 H28         6.9335   -1.3367    0.7436 H         1 <0>         0.0892
     64 H29         8.0752   -0.2607    2.5933 H         1 <0>         0.1510
     65 H30         9.6950   -0.5124    4.4272 H         1 <0>         0.1422
     66 H31         9.0130   -4.7455    4.4236 H         1 <0>         0.1410
     67 H32         7.3897   -4.4716    2.5959 H         1 <0>         0.1484
     68 H33        10.2368   -4.7912    5.7842 H         1 <0>         0.4442
     69 H34        10.8714   -0.8558    5.7871 H         1 <0>         0.4448
     70 H35        11.6950   -1.8403    6.8711 H         1 <0>         0.4362
     71 H36        11.3279   -4.1171    6.8694 H         1 <0>         0.4361
     72 H37         0.4479   -5.3367    0.1851 H         1 <0>         0.4320
@<TRIPOS>BOND
     1    1    2 1
     2    1   39 1
     3    1   40 1
     4    1   41 1
     5    2    3 1
     6    2   42 1
     7    2   43 1
     8    3    4 1
     9    3    8 1
    10    3    5 1
    11    5    6 1
    12    5   44 1
    13    5   45 1
    14    6    7 1
    15    6   26 1
    16    6   46 1
    17    7   14 am
    18    7    8 1
    19    8    9 1
    20    8   10 1
    21   10   11 1
    22   10   12 1
    23   10   24 1
    24   12   13 1
    25   12   47 1
    26   12   48 1
    27   13   14 1
    28   13   16 1
    29   13   23 1
    30   14   15 2
    31   16   17 1
    32   16   49 1
    33   16   50 1
    34   17   22 ar
    35   17   18 ar
    36   18   19 ar
    37   18   51 1
    38   19   20 ar
    39   19   52 1
    40   20   21 ar
    41   20   53 1
    42   21   22 ar
    43   21   54 1
    44   22   55 1
    45   23   56 1
    46   23   57 1
    47   23   72 1
    48   24   25 1
    49   25   58 1
    50   25   59 1
    51   25   60 1
    52   26   27 2
    53   26   28 am
    54   28   29 1
    55   28   61 1
    56   29   30 1
    57   29   62 1
    58   29   63 1
    59   30   35 ar
    60   30   31 ar
    61   31   32 ar
    62   31   64 1
    63   32   33 ar
    64   32   65 1
    65   33   34 ar
    66   33   36 1
    67   34   35 ar
    68   34   66 1
    69   35   67 1
    70   36   37 2
    71   36   38 1
    72   37   68 1
    73   37   71 1
    74   38   69 1
    75   38   70 1
@<TRIPOS>MOLECULE
CHEMBL209946
   69    73     0     0     0
SMALL
USER_CHARGES

@<TRIPOS>ATOM
      1 C1         -0.5844    6.0284    0.1309 C.3       1 <0>        -0.1231
      2 C2          0.5269    5.5345   -0.7975 C.3       1 <0>        -0.1097
      3 C3          1.7879    5.2520    0.0216 C.3       1 <0>        -0.1123
      4 C4          0.0814    4.2701   -1.4860 C.ar      1 <0>        -0.0257
      5 C5         -1.1728    3.7520   -1.2261 C.ar      1 <0>        -0.0713
      6 C6         -1.5938    2.5836   -1.8581 C.ar      1 <0>        -0.0725
      7 C7         -0.7446    1.9353   -2.7570 C.ar      1 <0>         0.1320
      8 C8          0.5235    2.4657   -3.0151 C.ar      1 <0>        -0.0945
      9 C9          0.9267    3.6396   -2.3770 C.ar      1 <0>        -0.0697
     10 C10         1.4317    1.7881   -3.9644 C.2       1 <0>         0.1612
     11 C11         1.5920    0.4447   -4.0721 C.2       1 <0>        -0.1274
     12 C12         2.5762    0.2184   -5.1257 C.ar      1 <0>        -0.1950
     13 C13         3.1613   -0.9191   -5.7030 C.ar      1 <0>         0.5144
     14 N1          4.0511   -0.7813   -6.6721 N.ar      1 <0>        -0.5224
     15 H1          4.4474   -1.5762   -7.0620 H         1 <0>         0.4386
     16 C14         4.4177    0.4069   -7.1274 C.ar      1 <0>         0.1042
     17 C15         3.8969    1.5632   -6.6206 C.ar      1 <0>        -0.1345
     18 C16         2.9525    1.4921   -5.5950 C.ar      1 <0>         0.1825
     19 N2          2.2419    2.4224   -4.8806 N.pl3     1 <0>        -0.5374
     20 N3          2.8078   -2.1850   -5.2580 N.pl3     1 <0>        -0.8160
     21 O1         -1.1473    0.7962   -3.3766 O.3       1 <0>        -0.4859
     22 C17        -2.9408    2.0298   -1.5763 C.ar      1 <0>        -0.0320
     23 C18        -3.3644    1.8564   -0.2598 C.ar      1 <0>        -0.0937
     24 C19        -4.6184    1.3408   -0.0035 C.ar      1 <0>        -0.1163
     25 C20        -5.4545    0.9957   -1.0504 C.ar      1 <0>        -0.0973
     26 C21        -5.0392    1.1652   -2.3587 C.ar      1 <0>        -0.1106
     27 C22        -3.7894    1.6863   -2.6268 C.ar      1 <0>        -0.0790
     28 C23        -5.9552    0.7860   -3.4936 C.3       1 <0>         0.1836
     29 N4         -6.7785    1.9401   -3.8631 N.am      1 <0>        -0.7358
     30 C24        -7.6778    1.8344   -4.8614 C.2       1 <0>         0.7115
     31 O2         -7.8059    0.7812   -5.4553 O.2       1 <0>        -0.5762
     32 N5         -8.4352    2.8962   -5.2013 N.am      1 <0>        -0.6954
     33 C25        -9.2934    2.8198   -6.3075 C.ar      1 <0>         0.0827
     34 C26        -8.8327    3.1671   -7.5718 C.ar      1 <0>         0.1382
     35 C27        -9.6823    3.0900   -8.6609 C.ar      1 <0>        -0.1604
     36 C28       -10.9883    2.6684   -8.4927 C.ar      1 <0>        -0.0531
     37 C29       -11.4503    2.3220   -7.2364 C.ar      1 <0>        -0.1603
     38 C30       -10.6051    2.3911   -6.1433 C.ar      1 <0>         0.1410
     39 F1        -11.0557    2.0470   -4.9171 F         1 <0>        -0.1225
     40 F2         -7.5570    3.5800   -7.7370 F         1 <0>        -0.1233
     41 C31         0.8250    6.5906   -1.8304 C.2       1 <0>         0.5086
     42 O3          1.9481    6.6897   -2.2944 O.co2     1 <0>        -0.6918
     43 O4         -0.0570    7.3459   -2.2020 O.co2     1 <0>        -0.6816
     44 H2         -0.2622    6.9429    0.6288 H         1 <0>         0.0547
     45 H3         -1.4827    6.2296   -0.4527 H         1 <0>         0.0621
     46 H4         -0.8000    5.2645    0.8779 H         1 <0>         0.0409
     47 H5          1.5723    4.4881    0.7687 H         1 <0>         0.0390
     48 H6          2.5796    4.9001   -0.6398 H         1 <0>         0.0563
     49 H7          2.1101    6.1665    0.5196 H         1 <0>         0.0548
     50 H8         -1.8288    4.2539   -0.5304 H         1 <0>         0.1399
     51 H9          1.9038    4.0536   -2.5777 H         1 <0>         0.1367
     52 H10         1.0877   -0.3121   -3.4896 H         1 <0>         0.1733
     53 H11         5.1484    0.4632   -7.9206 H         1 <0>         0.2023
     54 H12         4.2114    2.5207   -7.0087 H         1 <0>         0.1742
     55 H13         2.1554   -2.2845   -4.5470 H         1 <0>         0.4397
     56 H14         3.2130   -2.9703   -5.6579 H         1 <0>         0.4194
     57 H15        -1.5994    0.9450   -4.2183 H         1 <0>         0.3845
     58 H16        -2.7123    2.1248    0.5582 H         1 <0>         0.1270
     59 H17        -4.9477    1.2060    1.0162 H         1 <0>         0.1279
     60 H18        -6.4350    0.5922   -0.8452 H         1 <0>         0.1249
     61 H19        -3.4681    1.8231   -3.6488 H         1 <0>         0.1184
     62 H20        -5.3603    0.4744   -4.3521 H         1 <0>         0.0753
     63 H21        -6.6002   -0.0352   -3.1812 H         1 <0>         0.0776
     64 H22        -6.6764    2.7803   -3.3893 H         1 <0>         0.4014
     65 H23        -8.3867    3.7131   -4.6806 H         1 <0>         0.4106
     66 H24        -9.3250    3.3598   -9.6438 H         1 <0>         0.1483
     67 H25       -11.6494    2.6099   -9.3447 H         1 <0>         0.1492
     68 H26       -12.4712    1.9935   -7.1088 H         1 <0>         0.1487
     69 H27         2.3027    3.3831   -5.0005 H         1 <0>         0.4410
@<TRIPOS>BOND
     1    1    2 1
     2    1   44 1
     3    1   45 1
     4    1   46 1
     5    2    3 1
     6    2    4 1
     7    2   41 1
     8    3   47 1
     9    3   48 1
    10    3   49 1
    11    4    9 ar
    12    4    5 ar
    13    5    6 ar
    14    5   50 1
    15    6    7 ar
    16    6   22 1
    17    7    8 ar
    18    7   21 1
    19    8    9 ar
    20    8   10 1
    21    9   51 1
    22   10   19 1
    23   10   11 2
    24   11   12 1
    25   11   52 1
    26   12   18 ar
    27   12   13 ar
    28   13   14 ar
    29   13   20 1
    30   14   15 1
    31   14   16 ar
    32   16   17 ar
    33   16   53 1
    34   17   18 ar
    35   17   54 1
    36   18   19 1
    37   19   69 1
    38   20   55 1
    39   20   56 1
    40   21   57 1
    41   22   27 ar
    42   22   23 ar
    43   23   24 ar
    44   23   58 1
    45   24   25 ar
    46   24   59 1
    47   25   26 ar
    48   25   60 1
    49   26   27 ar
    50   26   28 1
    51   27   61 1
    52   28   29 1
    53   28   62 1
    54   28   63 1
    55   29   30 am
    56   29   64 1
    57   30   31 2
    58   30   32 am
    59   32   33 1
    60   32   65 1
    61   33   38 ar
    62   33   34 ar
    63   34   35 ar
    64   34   40 1
    65   35   36 ar
    66   35   66 1
    67   36   37 ar
    68   36   67 1
    69   37   38 ar
    70   37   68 1
    71   38   39 1
    72   41   42 2
    73   41   43 1
@<TRIPOS>MOLECULE
CHEMBL215436
   71    75     0     0     0
SMALL
USER_CHARGES

@<TRIPOS>ATOM
      1 C1         -0.0268    1.5956    0.0413 C.3       1 <0>        -0.1260
      2 C2          0.0069    0.0660    0.0327 C.3       1 <0>        -0.1101
      3 C3          0.7465   -0.4348    1.2749 C.3       1 <0>        -0.1160
      4 C4         -1.4025   -0.4675    0.0381 C.ar      1 <0>        -0.0200
      5 C5         -2.4692    0.4107    0.0434 C.ar      1 <0>        -0.0754
      6 C6         -3.7760   -0.0731    0.0479 C.ar      1 <0>        -0.0739
      7 C7         -4.0070   -1.4501    0.0471 C.ar      1 <0>         0.1338
      8 C8         -2.9223   -2.3329    0.0416 C.ar      1 <0>        -0.1009
      9 C9         -1.6202   -1.8307    0.0318 C.ar      1 <0>        -0.0398
     10 C10        -3.1542   -3.7928    0.0411 C.2       1 <0>         0.1664
     11 C11        -4.1160   -4.4336    0.7526 C.2       1 <0>        -0.1308
     12 C12        -3.9850   -5.8566    0.4566 C.ar      1 <0>        -0.1938
     13 C13        -4.6618   -7.0166    0.8638 C.ar      1 <0>         0.5135
     14 N1         -4.2858   -8.1959    0.3972 N.ar      1 <0>        -0.5226
     15 H1         -4.7626   -8.9893    0.6872 H         1 <0>         0.4378
     16 C14        -3.2796   -8.3280   -0.4535 C.ar      1 <0>         0.1010
     17 C15        -2.5690   -7.2505   -0.8996 C.ar      1 <0>        -0.1332
     18 C16        -2.9113   -5.9749   -0.4475 C.ar      1 <0>         0.1795
     19 N2         -2.4311   -4.7127   -0.6864 N.pl3     1 <0>        -0.5361
     20 N3         -5.7224   -6.9268    1.7541 N.pl3     1 <0>        -0.8166
     21 O1         -5.2774   -1.9294    0.0519 O.3       1 <0>        -0.4879
     22 C17        -4.9189    0.8726    0.0542 C.ar      1 <0>        -0.0327
     23 C18        -4.9572    1.9174    0.9759 C.ar      1 <0>        -0.0979
     24 C19        -6.0228    2.7941    0.9772 C.ar      1 <0>        -0.1179
     25 C20        -7.0521    2.6371    0.0662 C.ar      1 <0>        -0.0984
     26 C21        -7.0195    1.6019   -0.8504 C.ar      1 <0>        -0.1052
     27 C22        -5.9553    0.7230   -0.8651 C.ar      1 <0>        -0.0796
     28 C23        -8.1450    1.4370   -1.8389 C.3       1 <0>         0.1830
     29 N4         -7.8427    2.1970   -3.0543 N.am      1 <0>        -0.7428
     30 C24        -8.7133    2.1970   -4.0831 C.2       1 <0>         0.7019
     31 O2         -9.7496    1.5662   -4.0026 O.2       1 <0>        -0.5716
     32 N5         -8.4352    2.8962   -5.2013 N.am      1 <0>        -0.6795
     33 C25        -9.2879    2.8203   -6.3004 C.ar      1 <0>         0.1404
     34 C26        -8.7640    2.8606   -7.5894 C.ar      1 <0>        -0.1609
     35 C27        -9.5998    2.7861   -8.6737 C.ar      1 <0>        -0.0698
     36 C28       -10.9811    2.6691   -8.4832 C.ar      1 <0>        -0.1450
     37 C29       -11.5038    2.6285   -7.1859 C.ar      1 <0>        -0.0709
     38 C30       -10.6609    2.6986   -6.1067 C.ar      1 <0>        -0.1333
     39 C31       -11.8822    2.5894   -9.6447 C.2       1 <0>         0.5199
     40 O3        -11.4235    2.6254  -10.7783 O.co2     1 <0>        -0.6902
     41 O4        -13.0896    2.4871   -9.4763 O.co2     1 <0>        -0.6894
     42 C32         0.7209   -0.4137   -1.2046 C.2       1 <0>         0.5082
     43 O5          1.8803   -0.0925   -1.4027 O.co2     1 <0>        -0.6830
     44 O6          0.1393   -1.1232   -2.0077 O.co2     1 <0>        -0.6922
     45 H2          0.9926    1.9815    0.0374 H         1 <0>         0.0648
     46 H3         -0.5537    1.9524   -0.8436 H         1 <0>         0.0512
     47 H4         -0.5432    1.9427    0.9363 H         1 <0>         0.0456
     48 H5          0.2301   -0.0878    2.1698 H         1 <0>         0.0438
     49 H6          0.7705   -1.5245    1.2687 H         1 <0>         0.0436
     50 H7          1.7659   -0.0489    1.2710 H         1 <0>         0.0651
     51 H8         -2.2895    1.4756    0.0445 H         1 <0>         0.1360
     52 H9         -0.7808   -2.5103    0.0235 H         1 <0>         0.1244
     53 H10        -4.8398   -3.9776    1.4118 H         1 <0>         0.1732
     54 H11        -3.0136   -9.3144   -0.8037 H         1 <0>         0.2012
     55 H12        -1.7524   -7.3836   -1.5939 H         1 <0>         0.1734
     56 H13        -5.9969   -6.0614    2.0957 H         1 <0>         0.4398
     57 H14        -6.1894   -7.7293    2.0347 H         1 <0>         0.4187
     58 H15        -5.6492   -2.0670   -0.8301 H         1 <0>         0.3859
     59 H16        -4.1546    2.0404    1.6880 H         1 <0>         0.1246
     60 H17        -6.0536    3.6040    1.6909 H         1 <0>         0.1259
     61 H18        -7.8844    3.3254    0.0710 H         1 <0>         0.1249
     62 H19        -5.9283   -0.0820   -1.5846 H         1 <0>         0.1188
     63 H20        -8.2574    0.3819   -2.0887 H         1 <0>         0.0738
     64 H21        -9.0714    1.8072   -1.3999 H         1 <0>         0.0760
     65 H22        -7.0159    2.7002   -3.1186 H         1 <0>         0.3978
     66 H23        -7.6414    3.4522   -5.2407 H         1 <0>         0.4026
     67 H24        -7.6978    2.9509   -7.7356 H         1 <0>         0.1159
     68 H25        -9.1926    2.8182   -9.6735 H         1 <0>         0.1293
     69 H26       -12.5694    2.5386   -7.0348 H         1 <0>         0.1279
     70 H27       -11.0632    2.6632   -5.1050 H         1 <0>         0.1319
     71 H28        -1.6915   -4.4998   -1.2768 H         1 <0>         0.4419
@<TRIPOS>BOND
     1    1    2 1
     2    1   45 1
     3    1   46 1
     4    1   47 1
     5    2    3 1
     6    2    4 1
     7    2   42 1
     8    3   48 1
     9    3   49 1
    10    3   50 1
    11    4    9 ar
    12    4    5 ar
    13    5    6 ar
    14    5   51 1
    15    6    7 ar
    16    6   22 1
    17    7    8 ar
    18    7   21 1
    19    8    9 ar
    20    8   10 1
    21    9   52 1
    22   10   19 1
    23   10   11 2
    24   11   12 1
    25   11   53 1
    26   12   18 ar
    27   12   13 ar
    28   13   14 ar
    29   13   20 1
    30   14   15 1
    31   14   16 ar
    32   16   17 ar
    33   16   54 1
    34   17   18 ar
    35   17   55 1
    36   18   19 1
    37   19   71 1
    38   20   56 1
    39   20   57 1
    40   21   58 1
    41   22   27 ar
    42   22   23 ar
    43   23   24 ar
    44   23   59 1
    45   24   25 ar
    46   24   60 1
    47   25   26 ar
    48   25   61 1
    49   26   27 ar
    50   26   28 1
    51   27   62 1
    52   28   29 1
    53   28   63 1
    54   28   64 1
    55   29   30 am
    56   29   65 1
    57   30   31 2
    58   30   32 am
    59   32   33 1
    60   32   66 1
    61   33   38 ar
    62   33   34 ar
    63   34   35 ar
    64   34   67 1
    65   35   36 ar
    66   35   68 1
    67   36   37 ar
    68   36   39 1
    69   37   38 ar
    70   37   69 1
    71   38   70 1
    72   39   40 2
    73   39   41 1
    74   42   43 2
    75   42   44 1
@<TRIPOS>MOLECULE
CHEMBL197032
   75    79     0     0     0
SMALL
USER_CHARGES

@<TRIPOS>ATOM
      1 C1         -0.3371    1.3405    0.3521 C.3       1 <0>        -0.1865
      2 C2         -0.3104   -0.1884    0.4041 C.3       1 <0>         0.0275
      3 C3         -1.7393   -0.7185    0.5411 C.3       1 <0>        -0.1414
      4 C4         -2.3587   -0.1732    1.8312 C.3       1 <0>        -0.1409
      5 C5         -1.4758   -0.5709    3.0176 C.3       1 <0>        -0.1439
      6 C6         -0.0567   -0.0463    2.7888 C.3       1 <0>        -0.0176
      7 N1          0.4895   -0.6242    1.5551 N.4       1 <0>        -0.3781
      8 C7          1.8786   -0.1792    1.3808 C.3       1 <0>        -0.0108
      9 C8          2.7393   -0.7379    2.5156 C.3       1 <0>        -0.1723
     10 C9          4.1861   -0.2744    2.3341 C.3       1 <0>         0.1013
     11 N2          5.0103   -0.8095    3.4207 N.am      1 <0>        -0.6054
     12 C10         5.5922   -2.1491    3.3072 C.3       1 <0>         0.1503
     13 C11         6.9509   -2.0537    2.6623 C.ar      1 <0>        -0.1035
     14 C12         7.0598   -2.1333    1.2752 C.ar      1 <0>        -0.0744
     15 C13         8.2718   -2.0506    0.6610 C.ar      1 <0>        -0.1116
     16 C14         9.4336   -1.8820    1.4327 C.ar      1 <0>        -0.0110
     17 C15        10.7005   -1.7927    0.8272 C.ar      1 <0>        -0.0821
     18 C16        11.8092   -1.6299    1.5933 C.ar      1 <0>        -0.0903
     19 C17        11.7124   -1.5479    2.9936 C.ar      1 <0>        -0.1527
     20 C18        10.4805   -1.6319    3.6191 C.ar      1 <0>        -0.0149
     21 C19         9.3231   -1.8006    2.8440 C.ar      1 <0>        -0.0667
     22 C20         8.0532   -1.8854    3.4425 C.ar      1 <0>        -0.0635
     23 C21        12.9366   -1.3710    3.8045 C.cat     1 <0>         0.6002
     24 N3         14.0971   -1.8628    3.3744 N.pl3     1 <0>        -0.7557
     25 N4         12.8784   -0.7200    4.9649 N.pl3     1 <0>        -0.7597
     26 C22         5.2331   -0.0692    4.5247 C.2       1 <0>         0.5712
     27 O1          5.9840   -0.4780    5.3895 O.2       1 <0>        -0.5105
     28 C23         4.5665    1.2364    4.6839 C.ar      1 <0>        -0.1254
     29 C24         4.7641    2.2434    3.7505 C.ar      1 <0>        -0.0837
     30 C25         4.1389    3.4754    3.8949 C.ar      1 <0>        -0.1299
     31 C26         3.3174    3.7301    4.9521 C.ar      1 <0>        -0.0720
     32 C27         3.0882    2.7392    5.9222 C.ar      1 <0>        -0.0554
     33 C28         3.7119    1.4748    5.7893 C.ar      1 <0>        -0.0172
     34 C29         3.4787    0.4860    6.7545 C.ar      1 <0>        -0.1172
     35 C30         2.6515    0.7497    7.8046 C.ar      1 <0>        -0.0969
     36 C31         2.0321    1.9906    7.9341 C.ar      1 <0>        -0.1094
     37 C32         2.2458    2.9785    7.0219 C.ar      1 <0>        -0.1008
     38 H1          0.6803    1.7185    0.2517 H         1 <0>         0.0793
     39 H2         -0.9310    1.6646   -0.5025 H         1 <0>         0.1061
     40 H3         -0.7797    1.7276    1.2699 H         1 <0>         0.0850
     41 H4          0.1332   -0.5750   -0.5134 H         1 <0>         0.1370
     42 H5         -2.3320   -0.3923   -0.3135 H         1 <0>         0.1129
     43 H6         -1.7214   -1.8077    0.5781 H         1 <0>         0.0880
     44 H7         -2.4237    0.9134    1.7733 H         1 <0>         0.0842
     45 H8         -3.3561   -0.5927    1.9623 H         1 <0>         0.0957
     46 H9         -1.8803   -0.1392    3.9331 H         1 <0>         0.1120
     47 H10        -1.4525   -1.6571    3.1059 H         1 <0>         0.0872
     48 H11        -0.0812    1.0399    2.7009 H         1 <0>         0.1320
     49 H12         0.5745   -0.3275    3.6317 H         1 <0>         0.1286
     50 H13         2.2586   -0.5401    0.4250 H         1 <0>         0.1335
     51 H14         1.9161    0.9100    1.3988 H         1 <0>         0.1332
     52 H15         2.3594   -0.3770    3.4713 H         1 <0>         0.0936
     53 H16         2.7018   -1.8272    2.4976 H         1 <0>         0.0925
     54 H17         4.5661   -0.6353    1.3783 H         1 <0>         0.0919
     55 H18         4.2236    0.8148    2.3520 H         1 <0>         0.1034
     56 H19         5.6914   -2.5875    4.3003 H         1 <0>         0.1021
     57 H20         4.9433   -2.7766    2.6962 H         1 <0>         0.0946
     58 H21         6.1690   -2.2629    0.6785 H         1 <0>         0.1312
     59 H22         8.3401   -2.1147   -0.4149 H         1 <0>         0.1422
     60 H23        10.7908   -1.8540   -0.2472 H         1 <0>         0.1500
     61 H24        12.7782   -1.5629    1.1211 H         1 <0>         0.1398
     62 H25        10.4108   -1.5687    4.6950 H         1 <0>         0.1448
     63 H26         7.9536   -1.8208    4.5160 H         1 <0>         0.1448
     64 H27        14.9000   -1.7467    3.9062 H         1 <0>         0.4346
     65 H28        12.0331   -0.3618    5.2782 H         1 <0>         0.4453
     66 H29        13.6812   -0.6039    5.4967 H         1 <0>         0.4348
     67 H30         5.4106    2.0679    2.9033 H         1 <0>         0.1284
     68 H31         4.3072    4.2453    3.1564 H         1 <0>         0.1335
     69 H32         2.8418    4.6953    5.0447 H         1 <0>         0.1361
     70 H33         3.9522   -0.4807    6.6663 H         1 <0>         0.1276
     71 H34         2.4732   -0.0143    8.5468 H         1 <0>         0.1294
     72 H35         1.3804    2.1750    8.7753 H         1 <0>         0.1317
     73 H36         1.7597    3.9362    7.1350 H         1 <0>         0.1350
     74 H37        14.1395   -2.3369    2.5293 H         1 <0>         0.4471
     75 H38         0.4664   -1.6310    1.6175 H         1 <0>         0.4218
@<TRIPOS>BOND
     1    1    2 1
     2    1   38 1
     3    1   39 1
     4    1   40 1
     5    2    7 1
     6    2    3 1
     7    2   41 1
     8    3    4 1
     9    3   42 1
    10    3   43 1
    11    4    5 1
    12    4   44 1
    13    4   45 1
    14    5    6 1
    15    5   46 1
    16    5   47 1
    17    6    7 1
    18    6   48 1
    19    6   49 1
    20    7    8 1
    21    7   75 1
    22    8    9 1
    23    8   50 1
    24    8   51 1
    25    9   10 1
    26    9   52 1
    27    9   53 1
    28   10   11 1
    29   10   54 1
    30   10   55 1
    31   11   12 1
    32   11   26 am
    33   12   13 1
    34   12   56 1
    35   12   57 1
    36   13   22 ar
    37   13   14 ar
    38   14   15 ar
    39   14   58 1
    40   15   16 ar
    41   15   59 1
    42   16   21 ar
    43   16   17 ar
    44   17   18 ar
    45   17   60 1
    46   18   19 ar
    47   18   61 1
    48   19   20 ar
    49   19   23 1
    50   20   21 ar
    51   20   62 1
    52   21   22 ar
    53   22   63 1
    54   23   24 2
    55   23   25 1
    56   24   64 1
    57   24   74 1
    58   25   65 1
    59   25   66 1
    60   26   27 2
    61   26   28 1
    62   28   33 ar
    63   28   29 ar
    64   29   30 ar
    65   29   67 1
    66   30   31 ar
    67   30   68 1
    68   31   32 ar
    69   31   69 1
    70   32   37 ar
    71   32   33 ar
    72   33   34 ar
    73   34   35 ar
    74   34   70 1
    75   35   36 ar
    76   35   71 1
    77   36   37 ar
    78   36   72 1
    79   37   73 1
@<TRIPOS>MOLECULE
CHEMBL197032__1
   75    79     0     0     0
SMALL
USER_CHARGES

@<TRIPOS>ATOM
      1 C1          0.3742    1.1100   -0.1691 C.3       1 <0>        -0.1849
      2 C2          0.3428   -0.4171   -0.0792 C.3       1 <0>         0.0271
      3 C3          1.0949   -1.0131   -1.2711 C.3       1 <0>        -0.1411
      4 C4          1.0605   -2.5412   -1.1770 C.3       1 <0>        -0.1394
      5 C5          1.6613   -2.9739    0.1636 C.3       1 <0>        -0.1453
      6 C6          0.8882   -2.3052    1.3023 C.3       1 <0>        -0.0106
      7 N1          0.9811   -0.8463    1.1709 N.4       1 <0>        -0.3790
      8 C7          0.3039   -0.2096    2.3085 C.3       1 <0>        -0.0144
      9 C8          1.0441   -0.5563    3.6018 C.3       1 <0>        -0.1720
     10 C9          0.3388    0.1069    4.7866 C.3       1 <0>         0.1014
     11 N2          1.0475   -0.2251    6.0250 N.am      1 <0>        -0.6055
     12 C10         2.1896    0.5854    6.4551 C.3       1 <0>         0.1503
     13 C11         1.7048    1.7114    7.3315 C.ar      1 <0>        -0.1035
     14 C12         1.3467    2.9273    6.7522 C.ar      1 <0>        -0.0745
     15 C13         0.9049    3.9646    7.5151 C.ar      1 <0>        -0.1116
     16 C14         0.8061    3.8119    8.9082 C.ar      1 <0>        -0.0110
     17 C15         0.3525    4.8651    9.7233 C.ar      1 <0>        -0.0821
     18 C16         0.2654    4.6945   11.0671 C.ar      1 <0>        -0.0903
     19 C17         0.6233    3.4726   11.6635 C.ar      1 <0>        -0.1527
     20 C18         1.0727    2.4172   10.8888 C.ar      1 <0>        -0.0150
     21 C19         1.1700    2.5748    9.4979 C.ar      1 <0>        -0.0667
     22 C20         1.6176    1.5244    8.6767 C.ar      1 <0>        -0.0635
     23 C21         0.5193    3.3137   13.1304 C.cat     1 <0>         0.6002
     24 N3          0.6816    4.3682   13.9275 N.pl3     1 <0>        -0.7558
     25 N4          0.2633    2.1163   13.6540 N.pl3     1 <0>        -0.7596
     26 C22         0.6490   -1.2761    6.7686 C.2       1 <0>         0.5713
     27 O1          1.1830   -1.5021    7.8374 O.2       1 <0>        -0.5104
     28 C23        -0.4347   -2.1520    6.2860 C.ar      1 <0>        -0.1257
     29 C24        -1.6933   -1.6311    6.0234 C.ar      1 <0>        -0.0836
     30 C25        -2.7182   -2.4510    5.5686 C.ar      1 <0>        -0.1300
     31 C26        -2.5189   -3.7842    5.3679 C.ar      1 <0>        -0.0720
     32 C27        -1.2597   -4.3552    5.6210 C.ar      1 <0>        -0.0554
     33 C28        -0.2007   -3.5346    6.0796 C.ar      1 <0>        -0.0172
     34 C29         1.0557   -4.1041    6.3268 C.ar      1 <0>        -0.1173
     35 C30         1.2453   -5.4372    6.1179 C.ar      1 <0>        -0.0969
     36 C31         0.2066   -6.2452    5.6610 C.ar      1 <0>        -0.1094
     37 C32        -1.0300   -5.7278    5.4225 C.ar      1 <0>        -0.1008
     38 H1          1.4085    1.4537   -0.1523 H         1 <0>         0.0812
     39 H2         -0.0997    1.4291   -1.0973 H         1 <0>         0.1074
     40 H3         -0.1637    1.5349    0.6783 H         1 <0>         0.0815
     41 H4         -0.6916   -0.7603   -0.0950 H         1 <0>         0.1360
     42 H5          0.6184   -0.6947   -2.1983 H         1 <0>         0.1131
     43 H6          2.1296   -0.6708   -1.2567 H         1 <0>         0.0881
     44 H7          0.0290   -2.8874   -1.2428 H         1 <0>         0.0823
     45 H8          1.6428   -2.9699   -1.9927 H         1 <0>         0.0963
     46 H9          1.5896   -4.0571    0.2619 H         1 <0>         0.1126
     47 H10         2.7077   -2.6723    0.2077 H         1 <0>         0.0872
     48 H11        -0.1580   -2.6078    1.2573 H         1 <0>         0.1286
     49 H12         1.3132   -2.6113    2.2582 H         1 <0>         0.1290
     50 H13         0.3004    0.8717    2.1704 H         1 <0>         0.1372
     51 H14        -0.7225   -0.5714    2.3691 H         1 <0>         0.1320
     52 H15         1.0476   -1.6375    3.7398 H         1 <0>         0.0933
     53 H16         2.0705   -0.1944    3.5412 H         1 <0>         0.0924
     54 H17         0.3353    1.1881    4.6486 H         1 <0>         0.0918
     55 H18        -0.6876   -0.2549    4.8472 H         1 <0>         0.1035
     56 H19         2.8864   -0.0374    7.0160 H         1 <0>         0.1021
     57 H20         2.6932    0.9969    5.5803 H         1 <0>         0.0946
     58 H21         1.4212    3.0486    5.6816 H         1 <0>         0.1312
     59 H22         0.6318    4.9010    7.0515 H         1 <0>         0.1422
     60 H23         0.0739    5.8096    9.2798 H         1 <0>         0.1500
     61 H24        -0.0831    5.5079   11.6863 H         1 <0>         0.1398
     62 H25         1.3470    1.4805   11.3511 H         1 <0>         0.1448
     63 H26         1.8942    0.5754    9.1118 H         1 <0>         0.1448
     64 H27         0.6134    4.2641   14.8895 H         1 <0>         0.4346
     65 H28         0.1450    1.3483   13.0734 H         1 <0>         0.4453
     66 H29         0.1951    2.0121   14.6160 H         1 <0>         0.4348
     67 H30        -1.8782   -0.5778    6.1744 H         1 <0>         0.1285
     68 H31        -3.6905   -2.0245    5.3708 H         1 <0>         0.1336
     69 H32        -3.3301   -4.4032    5.0141 H         1 <0>         0.1361
     70 H33         1.8699   -3.4893    6.6809 H         1 <0>         0.1276
     71 H34         2.2146   -5.8734    6.3088 H         1 <0>         0.1294
     72 H35         0.3822   -7.2990    5.5028 H         1 <0>         0.1318
     73 H36        -1.8264   -6.3660    5.0693 H         1 <0>         0.1350
     74 H37         0.8681    5.2404   13.5461 H         1 <0>         0.4471
     75 H38         1.9519   -0.5714    1.1633 H         1 <0>         0.4199
@<TRIPOS>BOND
     1    1    2 1
     2    1   38 1
     3    1   39 1
     4    1   40 1
     5    2    7 1
     6    2    3 1
     7    2   41 1
     8    3    4 1
     9    3   42 1
    10    3   43 1
    11    4    5 1
    12    4   44 1
    13    4   45 1
    14    5    6 1
    15    5   46 1
    16    5   47 1
    17    6    7 1
    18    6   48 1
    19    6   49 1
    20    7    8 1
    21    7   75 1
    22    8    9 1
    23    8   50 1
    24    8   51 1
    25    9   10 1
    26    9   52 1
    27    9   53 1
    28   10   11 1
    29   10   54 1
    30   10   55 1
    31   11   12 1
    32   11   26 am
    33   12   13 1
    34   12   56 1
    35   12   57 1
    36   13   22 ar
    37   13   14 ar
    38   14   15 ar
    39   14   58 1
    40   15   16 ar
    41   15   59 1
    42   16   21 ar
    43   16   17 ar
    44   17   18 ar
    45   17   60 1
    46   18   19 ar
    47   18   61 1
    48   19   20 ar
    49   19   23 1
    50   20   21 ar
    51   20   62 1
    52   21   22 ar
    53   22   63 1
    54   23   24 2
    55   23   25 1
    56   24   64 1
    57   24   74 1
    58   25   65 1
    59   25   66 1
    60   26   27 2
    61   26   28 1
    62   28   33 ar
    63   28   29 ar
    64   29   30 ar
    65   29   67 1
    66   30   31 ar
    67   30   68 1
    68   31   32 ar
    69   31   69 1
    70   32   37 ar
    71   32   33 ar
    72   33   34 ar
    73   34   35 ar
    74   34   70 1
    75   35   36 ar
    76   35   71 1
    77   36   37 ar
    78   36   72 1
    79   37   73 1
@<TRIPOS>MOLECULE
CHEMBL203668
   72    75     0     0     0
SMALL
USER_CHARGES

@<TRIPOS>ATOM
      1 C1         -2.6970    2.8077   -0.7544 C.3       1 <0>        -0.1620
      2 C2         -1.8634    1.5319   -0.8906 C.3       1 <0>         0.1646
      3 C3         -0.5666    1.6824   -0.0928 C.3       1 <0>        -0.1679
      4 N1         -2.6257    0.3929   -0.3731 N.pl3     1 <0>        -0.6535
      5 C4         -2.8500   -0.7219   -1.1820 C.ar      1 <0>         0.2204
      6 C5         -3.9752   -0.7944   -2.0024 C.ar      1 <0>         0.0380
      7 C6         -4.1635   -1.9179   -2.7921 C.ar      1 <0>         0.2935
      8 N2         -3.2906   -2.9138   -2.7732 N.ar      1 <0>        -0.5364
      9 C7         -2.2108   -2.8803   -2.0071 C.ar      1 <0>         0.3217
     10 C8         -1.9515   -1.7880   -1.1938 C.ar      1 <0>         0.0569
     11 F1         -0.8450   -1.7590   -0.4191 F         1 <0>        -0.0879
     12 O1         -1.3451   -3.9262   -2.0219 O.3       1 <0>        -0.1582
     13 C9         -1.5560   -4.9134   -2.9248 C.ar      1 <0>         0.1401
     14 C10        -2.2553   -4.6468   -4.0958 C.ar      1 <0>        -0.1826
     15 C11        -2.4719   -5.6461   -5.0167 C.ar      1 <0>        -0.0814
     16 C12        -1.9896   -6.9395   -4.7817 C.ar      1 <0>        -0.1717
     17 C13        -1.2879   -7.2197   -3.6124 C.ar      1 <0>         0.0041
     18 C14        -1.0626   -6.2064   -2.6808 C.ar      1 <0>        -0.1331
     19 C15        -0.3166   -6.4918   -1.4443 C.2       1 <0>         0.5159
     20 O2          0.1117   -7.6183   -1.2345 O.co2     1 <0>        -0.6732
     21 O3         -0.1248   -5.6023   -0.6265 O.co2     1 <0>        -0.6596
     22 C16        -2.2258   -8.0067   -5.7743 C.2       1 <0>         0.5677
     23 O4         -1.8072   -9.1298   -5.5705 O.2       1 <0>        -0.5187
     24 N3         -2.9054   -7.7359   -6.9062 N.am      1 <0>        -0.7078
     25 C17        -3.1398   -8.7949   -7.8910 C.3       1 <0>         0.0864
     26 C18        -2.9318   -8.4463   -9.3662 C.3       1 <0>        -0.1941
     27 C19        -4.3469   -8.6424   -8.8186 C.3       1 <0>        -0.1924
     28 O5         -5.2560   -1.9987   -3.5942 O.3       1 <0>        -0.2149
     29 C20        -5.4836   -3.1690   -4.2465 C.ar      1 <0>         0.1055
     30 C21        -4.9068   -4.3446   -3.7844 C.ar      1 <0>        -0.0824
     31 C22        -5.1346   -5.5376   -4.4444 C.ar      1 <0>        -0.0830
     32 C23        -5.9369   -5.5679   -5.5671 C.ar      1 <0>        -0.0824
     33 C24        -6.5209   -4.3918   -6.0383 C.ar      1 <0>        -0.1459
     34 C25        -6.2951   -3.1896   -5.3685 C.ar      1 <0>        -0.0800
     35 C26        -7.3817   -4.4208   -7.2417 C.cat     1 <0>         0.6092
     36 N4         -7.1612   -5.3223   -8.1964 N.pl3     1 <0>        -0.7603
     37 N5         -8.3766   -3.5453   -7.3699 N.pl3     1 <0>        -0.7598
     38 F2         -4.8705    0.2171   -2.0269 F         1 <0>        -0.1056
     39 C27        -3.1526    0.4243    0.9935 C.3       1 <0>         0.1629
     40 C28        -4.6820    0.4185    0.9507 C.3       1 <0>        -0.1665
     41 C29        -2.6592   -0.8053    1.7587 C.3       1 <0>        -0.1707
     42 H1         -2.0994    3.6665   -1.0600 H         1 <0>         0.0654
     43 H2         -3.5796    2.7346   -1.3898 H         1 <0>         0.0584
     44 H3         -3.0058    2.9308    0.2837 H         1 <0>         0.0610
     45 H4         -1.6263    1.3633   -1.9411 H         1 <0>         0.0766
     46 H5         -0.8004    1.7640    0.9687 H         1 <0>         0.0606
     47 H6          0.0658    0.8105   -0.2596 H         1 <0>         0.0629
     48 H7         -0.0413    2.5800   -0.4192 H         1 <0>         0.0646
     49 H8         -2.6306   -3.6516   -4.2836 H         1 <0>         0.1553
     50 H9         -3.0165   -5.4320   -5.9244 H         1 <0>         0.1160
     51 H10        -0.9156   -8.2168   -3.4294 H         1 <0>         0.1547
     52 H11        -3.2394   -6.8398   -7.0687 H         1 <0>         0.3933
     53 H12        -2.8761   -9.8025   -7.5696 H         1 <0>         0.1423
     54 H13        -2.6206   -7.4291   -9.6039 H         1 <0>         0.0968
     55 H14        -2.5310   -9.2246  -10.0156 H         1 <0>         0.1055
     56 H15        -4.8772   -9.5497   -9.1078 H         1 <0>         0.1059
     57 H16        -4.9667   -7.7541   -8.6962 H         1 <0>         0.0821
     58 H17        -4.2778   -4.3268   -2.9066 H         1 <0>         0.1898
     59 H18        -4.6831   -6.4488   -4.0806 H         1 <0>         0.1537
     60 H19        -6.1122   -6.5016   -6.0808 H         1 <0>         0.1402
     61 H20        -6.7479   -2.2768   -5.7264 H         1 <0>         0.1465
     62 H21        -6.4364   -5.9601   -8.1030 H         1 <0>         0.4445
     63 H22        -8.5372   -2.8885   -6.6744 H         1 <0>         0.4469
     64 H23        -8.9408   -3.5643   -8.1587 H         1 <0>         0.4315
     65 H24        -2.8066    1.3278    1.4956 H         1 <0>         0.0938
     66 H25        -5.0302   -0.5250    0.5304 H         1 <0>         0.0499
     67 H26        -5.0742    0.5327    1.9613 H         1 <0>         0.0651
     68 H27        -5.0313    1.2436    0.3300 H         1 <0>         0.0626
     69 H28        -2.9340   -1.7076    1.2125 H         1 <0>         0.0523
     70 H29        -1.5750   -0.7586    1.8610 H         1 <0>         0.0675
     71 H30        -3.1169   -0.8256    2.7477 H         1 <0>         0.0675
     72 H31        -7.7254   -5.3413   -8.9852 H         1 <0>         0.4322
@<TRIPOS>BOND
     1    1    2 1
     2    1   42 1
     3    1   43 1
     4    1   44 1
     5    2    3 1
     6    2    4 1
     7    2   45 1
     8    3   46 1
     9    3   47 1
    10    3   48 1
    11    4    5 1
    12    4   39 1
    13    5   10 ar
    14    5    6 ar
    15    6    7 ar
    16    6   38 1
    17    7    8 ar
    18    7   28 1
    19    8    9 ar
    20    9   10 ar
    21    9   12 1
    22   10   11 1
    23   12   13 1
    24   13   18 ar
    25   13   14 ar
    26   14   15 ar
    27   14   49 1
    28   15   16 ar
    29   15   50 1
    30   16   17 ar
    31   16   22 1
    32   17   18 ar
    33   17   51 1
    34   18   19 1
    35   19   20 2
    36   19   21 1
    37   22   23 2
    38   22   24 am
    39   24   25 1
    40   24   52 1
    41   25   27 1
    42   25   26 1
    43   25   53 1
    44   26   27 1
    45   26   54 1
    46   26   55 1
    47   27   56 1
    48   27   57 1
    49   28   29 1
    50   29   34 ar
    51   29   30 ar
    52   30   31 ar
    53   30   58 1
    54   31   32 ar
    55   31   59 1
    56   32   33 ar
    57   32   60 1
    58   33   34 ar
    59   33   35 1
    60   34   61 1
    61   35   36 2
    62   35   37 1
    63   36   62 1
    64   36   72 1
    65   37   63 1
    66   37   64 1
    67   39   40 1
    68   39   41 1
    69   39   65 1
    70   40   66 1
    71   40   67 1
    72   40   68 1
    73   41   69 1
    74   41   70 1
    75   41   71 1
@<TRIPOS>MOLECULE
CHEMBL206310
   53    57     0     0     0
SMALL
USER_CHARGES

@<TRIPOS>ATOM
      1 C1         -0.0166    1.3757    0.0096 C.ar      1 <0>        -0.1157
      2 C2          1.1704    2.0862    0.0021 C.ar      1 <0>        -0.0880
      3 C3          2.3817    1.4190   -0.0130 C.ar      1 <0>        -0.1056
      4 C4          2.4124    0.0390   -0.0207 C.ar      1 <0>        -0.0807
      5 C5          1.2199   -0.6818   -0.0132 C.ar      1 <0>        -0.0518
      6 C6          0.0021   -0.0041    0.0020 C.ar      1 <0>        -0.0882
      7 C7          1.2465   -2.1649   -0.0218 C.ar      1 <0>        -0.0616
      8 C8          2.0295   -2.8442   -0.9534 C.ar      1 <0>        -0.0659
      9 C9          2.0568   -4.2252   -0.9638 C.ar      1 <0>        -0.1166
     10 C10         1.3094   -4.9456   -0.0531 C.ar      1 <0>        -0.0826
     11 C11         0.5199   -4.2822    0.8866 C.ar      1 <0>        -0.0931
     12 C12         0.4916   -2.8837    0.9069 C.ar      1 <0>         0.1555
     13 O1         -0.2697   -2.2294    1.8209 O.3       1 <0>        -0.4825
     14 C13        -0.2802   -5.0545    1.8607 C.2       1 <0>         0.1598
     15 C14        -0.4494   -4.7290    3.1670 C.2       1 <0>        -0.1272
     16 C15        -1.3051   -5.7573    3.7534 C.ar      1 <0>        -0.1367
     17 C16        -1.8327   -5.9876    5.0237 C.ar      1 <0>         0.2055
     18 N1         -2.5952   -7.0389    5.2422 N.ar      1 <0>        -0.4601
     19 H1         -1.0090   -6.6423    0.7119 H         1 <0>         0.4368
     20 C17        -2.8903   -7.9070    4.2886 C.ar      1 <0>         0.0984
     21 C18        -2.4123   -7.7573    3.0051 C.ar      1 <0>        -0.1120
     22 C19        -1.6002   -6.6642    2.7124 C.ar      1 <0>         0.1765
     23 N2         -0.9727   -6.2110    1.5799 N.pl3     1 <0>        -0.5535
     24 C20         3.6705    2.2000   -0.0216 C.3       1 <0>         0.1782
     25 N3          4.1016    2.4461    1.3567 N.am      1 <0>        -0.7335
     26 C21         5.2372    3.1316    1.5954 C.2       1 <0>         0.6990
     27 O2          5.9040    3.5457    0.6667 O.2       1 <0>        -0.5532
     28 N4          5.6337    3.3581    2.8634 N.am      1 <0>        -0.6367
     29 C22         6.8117    4.0691    3.1110 C.2       1 <0>         0.0828
     30 C23         7.3823    4.3954    4.3040 C.2       1 <0>        -0.2127
     31 C24         8.5646    5.1132    4.3030 C.2       1 <0>        -0.1346
     32 C25         9.1177    5.4691    3.1190 C.2       1 <0>        -0.2226
     33 S1          7.9630    4.7787    1.9456 S.3       1 <0>         0.1500
     34 H2         -0.9597    1.9019    0.0259 H         1 <0>         0.1305
     35 H3          1.1511    3.1660    0.0077 H         1 <0>         0.1299
     36 H4          3.3589   -0.4811   -0.0328 H         1 <0>         0.1279
     37 H5         -0.9252   -0.5578    0.0079 H         1 <0>         0.1183
     38 H6          2.6167   -2.2889   -1.6699 H         1 <0>         0.1404
     39 H7          2.6660   -4.7446   -1.6887 H         1 <0>         0.1408
     40 H8          1.3359   -6.0252   -0.0686 H         1 <0>         0.1299
     41 H9         -1.1723   -2.0491    1.5243 H         1 <0>         0.3934
     42 H10        -0.0311   -3.8732    3.6760 H         1 <0>         0.1825
     43 H11        -1.6153   -5.3026    5.8299 H         1 <0>         0.2112
     44 H12        -3.5201   -8.7528    4.5216 H         1 <0>         0.2079
     45 H13        -2.6628   -8.4758    2.2387 H         1 <0>         0.1789
     46 H14         4.4374    1.6297   -0.5458 H         1 <0>         0.0816
     47 H15         3.5151    3.1519   -0.5292 H         1 <0>         0.0835
     48 H16         3.5697    2.1158    2.0975 H         1 <0>         0.4005
     49 H17         5.1018    3.0277    3.6043 H         1 <0>         0.4146
     50 H18         6.9198    4.0992    5.2339 H         1 <0>         0.1305
     51 H19         9.0399    5.3865    5.2335 H         1 <0>         0.1332
     52 H20        10.0256    6.0236    2.9328 H         1 <0>         0.1849
     53 H21        -2.9523   -7.1818    6.1327 H         1 <0>         0.4521
@<TRIPOS>BOND
     1    1    6 ar
     2    1    2 ar
     3    1   34 1
     4    2    3 ar
     5    2   35 1
     6    3    4 ar
     7    3   24 1
     8    4    5 ar
     9    4   36 1
    10    5    6 ar
    11    5    7 1
    12    6   37 1
    13    7   12 ar
    14    7    8 ar
    15    8    9 ar
    16    8   38 1
    17    9   10 ar
    18    9   39 1
    19   10   11 ar
    20   10   40 1
    21   11   12 ar
    22   11   14 1
    23   12   13 1
    24   13   41 1
    25   14   23 1
    26   14   15 2
    27   15   16 1
    28   15   42 1
    29   16   17 ar
    30   16   22 ar
    31   17   18 ar
    32   17   43 1
    33   18   20 ar
    34   18   53 1
    35   19   23 1
    36   20   21 ar
    37   20   44 1
    38   21   22 ar
    39   21   45 1
    40   22   23 1
    41   24   25 1
    42   24   46 1
    43   24   47 1
    44   25   26 am
    45   25   48 1
    46   26   27 2
    47   26   28 am
    48   28   29 1
    49   28   49 1
    50   29   33 1
    51   29   30 2
    52   30   31 1
    53   30   50 1
    54   31   32 2
    55   31   51 1
    56   32   33 1
    57   32   52 1
@<TRIPOS>MOLECULE
CHEMBL35754
   53    54     0     0     0
SMALL
USER_CHARGES

@<TRIPOS>ATOM
      1 C1         -0.0197    1.5043   -0.0106 C.3       1 <0>        -0.1777
      2 C2          0.0007   -0.0256   -0.0066 C.3       1 <0>         0.1633
      3 C3         -1.4133   -0.5468    0.0092 C.ar      1 <0>        -0.0127
      4 C4         -2.0156   -0.8751    1.2096 C.ar      1 <0>        -0.1207
      5 C5         -3.3123   -1.3531    1.2241 C.ar      1 <0>        -0.0285
      6 C6         -4.0074   -1.5024    0.0383 C.ar      1 <0>        -0.1823
      7 C7         -3.4056   -1.1734   -1.1616 C.ar      1 <0>        -0.0116
      8 C8         -2.1099   -0.6912   -1.1758 C.ar      1 <0>        -0.1764
      9 C9         -1.4555   -0.3274   -2.4836 C.3       1 <0>         0.5092
     10 F1         -2.3513   -0.5578   -3.5332 F         1 <0>        -0.1681
     11 F2         -1.0965    1.0246   -2.4653 F         1 <0>        -0.1647
     12 F3         -0.3113   -1.1113   -2.6665 F         1 <0>        -0.1682
     13 C10        -5.4209   -2.0245    0.0541 C.3       1 <0>         0.5113
     14 F4         -5.8070   -2.2854    1.3732 F         1 <0>        -0.1719
     15 F5         -6.2774   -1.0684   -0.5021 F         1 <0>        -0.1697
     16 F6         -5.4906   -3.2045   -0.6942 F         1 <0>        -0.1703
     17 N1          0.7099   -0.5014    1.1837 N.am      1 <0>        -0.7184
     18 C11         2.0530   -0.6123    1.1686 C.2       1 <0>         0.5130
     19 O1          2.6745   -0.3182    0.1695 O.2       1 <0>        -0.5253
     20 C12         2.7825   -1.1017    2.3930 C.3       1 <0>         0.1171
     21 N2          4.2222   -1.1325    2.1240 N.am      1 <0>        -0.7207
     22 C13         5.0782   -1.5401    3.0819 C.2       1 <0>         0.7111
     23 O2          4.6556   -1.8822    4.1693 O.2       1 <0>        -0.5653
     24 N3          6.4028   -1.5685    2.8343 N.am      1 <0>        -0.6837
     25 C14         7.2959   -1.8977    3.8538 C.ar      1 <0>         0.2460
     26 C15         6.9410   -2.8456    4.8082 C.ar      1 <0>        -0.1243
     27 C16         7.8204   -3.1724    5.8161 C.ar      1 <0>        -0.0328
     28 C17         9.0700   -2.5515    5.8794 C.ar      1 <0>        -0.1849
     29 C18         9.4235   -1.6004    4.9193 C.ar      1 <0>        -0.0306
     30 C19         8.5419   -1.2817    3.9109 C.ar      1 <0>        -0.1491
     31 C20        10.0156   -2.8995    6.9598 C.cat     1 <0>         0.6033
     32 N4         11.2073   -2.3063    7.0189 N.pl3     1 <0>        -0.7662
     33 N5          9.6768   -3.8066    7.8752 N.pl3     1 <0>        -0.7652
     34 H1          1.0030    1.8812   -0.0221 H         1 <0>         0.0745
     35 H2         -0.5474    1.8583   -0.8963 H         1 <0>         0.0926
     36 H3         -0.5292    1.8632    0.8836 H         1 <0>         0.0662
     37 H4          0.5102   -0.3845   -0.9008 H         1 <0>         0.1166
     38 H5         -1.4726   -0.7584    2.1359 H         1 <0>         0.1460
     39 H6         -3.7826   -1.6102    2.1618 H         1 <0>         0.1554
     40 H7         -3.9484   -1.2903   -2.0879 H         1 <0>         0.1565
     41 H8          0.2128   -0.7366    1.9828 H         1 <0>         0.4050
     42 H9          2.5832   -0.4295    3.2276 H         1 <0>         0.1080
     43 H10         2.4383   -2.1049    2.6443 H         1 <0>         0.1080
     44 H11         4.5594   -0.8596    1.2564 H         1 <0>         0.4151
     45 H12         6.7349   -1.3599    1.9471 H         1 <0>         0.4209
     46 H13         5.9747   -3.3254    4.7587 H         1 <0>         0.1646
     47 H14         7.5440   -3.9079    6.5571 H         1 <0>         0.1403
     48 H15        10.3890   -1.1186    4.9656 H         1 <0>         0.1414
     49 H16         8.8162   -0.5494    3.1659 H         1 <0>         0.1516
     50 H17        11.4539   -1.6459    6.3525 H         1 <0>         0.4432
     51 H18         8.8092   -4.2384    7.8322 H         1 <0>         0.4438
     52 H19        10.2976   -4.0351    8.5846 H         1 <0>         0.4325
     53 H20        11.8282   -2.5348    7.7283 H         1 <0>         0.4324
@<TRIPOS>BOND
     1    1    2 1
     2    1   34 1
     3    1   35 1
     4    1   36 1
     5    2    3 1
     6    2   17 1
     7    2   37 1
     8    3    8 ar
     9    3    4 ar
    10    4    5 ar
    11    4   38 1
    12    5    6 ar
    13    5   39 1
    14    6    7 ar
    15    6   13 1
    16    7    8 ar
    17    7   40 1
    18    8    9 1
    19    9   10 1
    20    9   11 1
    21    9   12 1
    22   13   14 1
    23   13   15 1
    24   13   16 1
    25   17   18 am
    26   17   41 1
    27   18   19 2
    28   18   20 1
    29   20   21 1
    30   20   42 1
    31   20   43 1
    32   21   22 am
    33   21   44 1
    34   22   23 2
    35   22   24 am
    36   24   25 1
    37   24   45 1
    38   25   30 ar
    39   25   26 ar
    40   26   27 ar
    41   26   46 1
    42   27   28 ar
    43   27   47 1
    44   28   29 ar
    45   28   31 1
    46   29   30 ar
    47   29   48 1
    48   30   49 1
    49   31   32 2
    50   31   33 1
    51   32   50 1
    52   32   53 1
    53   33   51 1
    54   33   52 1
@<TRIPOS>MOLECULE
CHEMBL35754__1
   53    54     0     0     0
SMALL
USER_CHARGES

@<TRIPOS>ATOM
      1 C1         -0.3085    1.5704    0.2348 C.3       1 <0>        -0.1658
      2 C2         -0.3564    0.0423    0.1772 C.3       1 <0>         0.1598
      3 C3          0.2129   -0.5265    1.4513 C.ar      1 <0>        -0.0276
      4 C4          0.3565    0.2802    2.5649 C.ar      1 <0>        -0.1051
      5 C5          0.8787   -0.2415    3.7334 C.ar      1 <0>        -0.0365
      6 C6          1.2569   -1.5702    3.7889 C.ar      1 <0>        -0.1749
      7 C7          1.1126   -2.3768    2.6760 C.ar      1 <0>        -0.0210
      8 C8          0.5863   -1.8561    1.5083 C.ar      1 <0>        -0.1705
      9 C9          0.4239   -2.7370    0.2964 C.3       1 <0>         0.5109
     10 F1          0.9487   -4.0051    0.5680 F         1 <0>        -0.1708
     11 F2         -0.9344   -2.8519   -0.0179 F         1 <0>        -0.1723
     12 F3          1.1068   -2.1717   -0.7858 F         1 <0>        -0.1674
     13 C10         1.8272   -2.1387    5.0627 C.3       1 <0>         0.5103
     14 F4          1.8751   -1.1383    6.0395 F         1 <0>        -0.1710
     15 F5          1.0164   -3.1878    5.5091 F         1 <0>        -0.1710
     16 F6          3.1194   -2.6178    4.8222 F         1 <0>        -0.1699
     17 N1         -1.7454   -0.3974    0.0240 N.am      1 <0>        -0.7144
     18 C11        -2.2773   -0.5336   -1.2069 C.2       1 <0>         0.5164
     19 O1         -1.6059   -0.2922   -2.1877 O.2       1 <0>        -0.5276
     20 C12        -3.7061   -0.9859   -1.3645 C.3       1 <0>         0.1172
     21 N2         -4.0424   -1.0543   -2.7887 N.am      1 <0>        -0.7199
     22 C13        -5.2762   -1.4381   -3.1722 C.2       1 <0>         0.7099
     23 O2         -6.1101   -1.7275   -2.3361 O.2       1 <0>        -0.5638
     24 N3         -5.5856   -1.5010   -4.4824 N.am      1 <0>        -0.6837
     25 C14        -6.8916   -1.7904   -4.8775 C.ar      1 <0>         0.2504
     26 C15        -7.9637   -1.3375   -4.1156 C.ar      1 <0>        -0.1250
     27 C16        -9.2541   -1.6219   -4.5027 C.ar      1 <0>        -0.0308
     28 C17        -9.4860   -2.3657   -5.6621 C.ar      1 <0>        -0.1866
     29 C18        -8.4073   -2.8187   -6.4253 C.ar      1 <0>        -0.0287
     30 C19        -7.1194   -2.5265   -6.0357 C.ar      1 <0>        -0.1505
     31 C20       -10.8693   -2.6730   -6.0801 C.cat     1 <0>         0.6035
     32 N4        -11.0890   -3.3827   -7.1863 N.pl3     1 <0>        -0.7663
     33 N5        -11.8973   -2.2406   -5.3508 N.pl3     1 <0>        -0.7655
     34 H1          0.7108    1.8944    0.4449 H         1 <0>         0.0780
     35 H2         -0.6300    1.9804   -0.7227 H         1 <0>         0.0730
     36 H3         -0.9724    1.9252    1.0232 H         1 <0>         0.0684
     37 H4          0.2313   -0.3079   -0.6715 H         1 <0>         0.1203
     38 H5          0.0610    1.3181    2.5215 H         1 <0>         0.1571
     39 H6          0.9915    0.3889    4.6031 H         1 <0>         0.1553
     40 H7          1.4084   -3.4146    2.7192 H         1 <0>         0.1539
     41 H8         -2.2823   -0.5905    0.8084 H         1 <0>         0.4081
     42 H9         -3.8270   -1.9715   -0.9149 H         1 <0>         0.1075
     43 H10        -4.3686   -0.2765   -0.8684 H         1 <0>         0.1073
     44 H11        -3.3771   -0.8235   -3.4558 H         1 <0>         0.4147
     45 H12        -4.9000   -1.3451   -5.1507 H         1 <0>         0.4206
     46 H13        -7.7838   -0.7624   -3.2193 H         1 <0>         0.1589
     47 H14       -10.0861   -1.2706   -3.9104 H         1 <0>         0.1403
     48 H15        -8.5835   -3.3939   -7.3222 H         1 <0>         0.1415
     49 H16        -6.2851   -2.8730   -6.6275 H         1 <0>         0.1517
     50 H17       -10.3406   -3.6974   -7.7172 H         1 <0>         0.4431
     51 H18       -11.7374   -1.7240   -4.5455 H         1 <0>         0.4437
     52 H19       -12.8055   -2.4424   -5.6252 H         1 <0>         0.4324
     53 H20       -11.9972   -3.5845   -7.4607 H         1 <0>         0.4324
@<TRIPOS>BOND
     1    1    2 1
     2    1   34 1
     3    1   35 1
     4    1   36 1
     5    2    3 1
     6    2   17 1
     7    2   37 1
     8    3    8 ar
     9    3    4 ar
    10    4    5 ar
    11    4   38 1
    12    5    6 ar
    13    5   39 1
    14    6    7 ar
    15    6   13 1
    16    7    8 ar
    17    7   40 1
    18    8    9 1
    19    9   10 1
    20    9   11 1
    21    9   12 1
    22   13   14 1
    23   13   15 1
    24   13   16 1
    25   17   18 am
    26   17   41 1
    27   18   19 2
    28   18   20 1
    29   20   21 1
    30   20   42 1
    31   20   43 1
    32   21   22 am
    33   21   44 1
    34   22   23 2
    35   22   24 am
    36   24   25 1
    37   24   45 1
    38   25   30 ar
    39   25   26 ar
    40   26   27 ar
    41   26   46 1
    42   27   28 ar
    43   27   47 1
    44   28   29 ar
    45   28   31 1
    46   29   30 ar
    47   29   48 1
    48   30   49 1
    49   31   32 2
    50   31   33 1
    51   32   50 1
    52   32   53 1
    53   33   51 1
    54   33   52 1
@<TRIPOS>MOLECULE
CHEMBL137487
   65    68     0     0     0
SMALL
USER_CHARGES

@<TRIPOS>ATOM
      1 C1         -0.0167    1.3781    0.0096 C.ar      1 <0>        -0.1091
      2 C2          1.1709    2.0855    0.0021 C.ar      1 <0>        -0.1216
      3 C3          2.3773    1.4107   -0.0130 C.ar      1 <0>        -0.0996
      4 C4          2.3960    0.0285   -0.0201 C.ar      1 <0>        -0.1133
      5 C5          1.2084   -0.6789   -0.0117 C.ar      1 <0>        -0.0996
      6 C6          0.0021   -0.0041    0.0020 C.ar      1 <0>        -0.1215
      7 C7          3.7112   -0.7071   -0.0376 C.3       1 <0>         0.1670
      8 N1          4.1518   -0.9524    1.3379 N.pl3     1 <0>        -0.7368
      9 C8          5.3533   -1.6243    1.5773 C.ar      1 <0>         0.1986
     10 C9          6.1323   -2.0544    0.5102 C.ar      1 <0>        -0.1705
     11 C10         7.3183   -2.7181    0.7438 C.ar      1 <0>        -0.0583
     12 C11         7.7368   -2.9576    2.0516 C.ar      1 <0>        -0.0711
     13 C12         6.9551   -2.5255    3.1220 C.ar      1 <0>        -0.0423
     14 C13         5.7711   -1.8568    2.8844 C.ar      1 <0>         0.0325
     15 F1          5.0153   -1.4326    3.9207 F         1 <0>        -0.1424
     16 C14         7.4048   -2.7835    4.5370 C.3       1 <0>        -0.1040
     17 C15         8.2482   -1.6294    5.0144 C.2       1 <0>         0.5265
     18 O1          8.4628   -0.6899    4.2782 O.2       1 <0>        -0.5129
     19 N2          8.7638   -1.6413    6.2596 N.am      1 <0>        -0.7342
     20 C16         9.5836   -0.5194    6.7237 C.3       1 <0>         0.1457
     21 C17        10.0333   -0.7774    8.1387 C.ar      1 <0>        -0.0348
     22 C18         9.2520   -0.3519    9.1982 C.ar      1 <0>        -0.0962
     23 C19         9.6584   -0.5847   10.4960 C.ar      1 <0>        -0.0576
     24 C20        10.8599   -1.2510   10.7387 C.ar      1 <0>        -0.1520
     25 C21        11.6431   -1.6779    9.6659 C.ar      1 <0>        -0.0576
     26 C22        11.2230   -1.4437    8.3727 C.ar      1 <0>        -0.0955
     27 C23        11.3020   -1.5035   12.1281 C.cat     1 <0>         0.6004
     28 N3         12.4491   -2.1397   12.3565 N.pl3     1 <0>        -0.7609
     29 N4         10.5526   -1.0945   13.1498 N.pl3     1 <0>        -0.7610
     30 C24         9.0122   -3.6719    2.3042 C.ar      1 <0>         0.0128
     31 C25         9.9451   -3.1428    3.1950 C.ar      1 <0>        -0.1823
     32 C26        11.1317   -3.8083    3.4287 C.ar      1 <0>        -0.0717
     33 C27        11.3995   -5.0001    2.7821 C.ar      1 <0>        -0.1997
     34 C28        10.4755   -5.5351    1.8925 C.ar      1 <0>         0.2200
     35 C29         9.2783   -4.8753    1.6566 C.ar      1 <0>        -0.1850
     36 N5         10.7500   -6.7394    1.2400 N.pl3     1 <0>        -0.8784
     37 H1         -0.9591    1.9053    0.0259 H         1 <0>         0.1250
     38 H2          1.1563    3.1654    0.0076 H         1 <0>         0.1254
     39 H3          3.3051    1.9634   -0.0196 H         1 <0>         0.1237
     40 H4          1.2231   -1.7588   -0.0176 H         1 <0>         0.1238
     41 H5         -0.9258   -0.5567    0.0082 H         1 <0>         0.1256
     42 H6          3.5884   -1.6586   -0.5549 H         1 <0>         0.0724
     43 H7          4.4573   -0.1052   -0.5563 H         1 <0>         0.0722
     44 H8          3.6095   -0.6484    2.0824 H         1 <0>         0.4047
     45 H9          5.8084   -1.8690   -0.5033 H         1 <0>         0.1346
     46 H10         7.9226   -3.0525   -0.0864 H         1 <0>         0.1319
     47 H11         6.5325   -2.8874    5.1823 H         1 <0>         0.1055
     48 H12         7.9925   -3.7009    4.5699 H         1 <0>         0.1156
     49 H13         8.5921   -2.3927    6.8485 H         1 <0>         0.4027
     50 H14        10.4559   -0.4154    6.0785 H         1 <0>         0.0901
     51 H15         8.9959    0.3981    6.6908 H         1 <0>         0.0893
     52 H16         8.3221    0.1638    9.0090 H         1 <0>         0.1511
     53 H17         9.0479   -0.2515   11.3223 H         1 <0>         0.1401
     54 H18        12.5743   -2.1940    9.8473 H         1 <0>         0.1402
     55 H19        11.8264   -1.7772    7.5413 H         1 <0>         0.1518
     56 H20        12.9950   -2.4377   11.6121 H         1 <0>         0.4446
     57 H21         9.7169   -0.6311   12.9834 H         1 <0>         0.4446
     58 H22        10.8424   -1.2600   14.0606 H         1 <0>         0.4341
     59 H23         9.7395   -2.2117    3.7022 H         1 <0>         0.1274
     60 H24        11.8532   -3.3962    4.1186 H         1 <0>         0.1162
     61 H25        12.3293   -5.5169    2.9684 H         1 <0>         0.1179
     62 H26         8.5566   -5.2916    0.9693 H         1 <0>         0.1231
     63 H27        11.5856   -7.2024    1.4079 H         1 <0>         0.3990
     64 H28        10.1049   -7.1126    0.6192 H         1 <0>         0.3997
     65 H29        12.7388   -2.3052   13.2673 H         1 <0>         0.4341
@<TRIPOS>BOND
     1    1    6 ar
     2    1    2 ar
     3    1   37 1
     4    2    3 ar
     5    2   38 1
     6    3    4 ar
     7    3   39 1
     8    4    5 ar
     9    4    7 1
    10    5    6 ar
    11    5   40 1
    12    6   41 1
    13    7    8 1
    14    7   42 1
    15    7   43 1
    16    8    9 1
    17    8   44 1
    18    9   14 ar
    19    9   10 ar
    20   10   11 ar
    21   10   45 1
    22   11   12 ar
    23   11   46 1
    24   12   13 ar
    25   12   30 1
    26   13   14 ar
    27   13   16 1
    28   14   15 1
    29   16   17 1
    30   16   47 1
    31   16   48 1
    32   17   18 2
    33   17   19 am
    34   19   20 1
    35   19   49 1
    36   20   21 1
    37   20   50 1
    38   20   51 1
    39   21   26 ar
    40   21   22 ar
    41   22   23 ar
    42   22   52 1
    43   23   24 ar
    44   23   53 1
    45   24   25 ar
    46   24   27 1
    47   25   26 ar
    48   25   54 1
    49   26   55 1
    50   27   28 2
    51   27   29 1
    52   28   56 1
    53   28   65 1
    54   29   57 1
    55   29   58 1
    56   30   35 ar
    57   30   31 ar
    58   31   32 ar
    59   31   59 1
    60   32   33 ar
    61   32   60 1
    62   33   34 ar
    63   33   61 1
    64   34   35 ar
    65   34   36 1
    66   35   62 1
    67   36   63 1
    68   36   64 1
@<TRIPOS>MOLECULE
CHEMBL339200
   64    66     0     0     0
SMALL
USER_CHARGES

@<TRIPOS>ATOM
      1 C1         -3.4084   -3.2858   -3.0642 C.3       1 <0>        -0.1184
      2 C2         -2.5925   -2.8084   -1.8906 C.ar      1 <0>        -0.0909
      3 C3         -1.9770   -1.5698   -1.9359 C.ar      1 <0>        -0.0889
      4 C4         -1.2258   -1.1242   -0.8630 C.ar      1 <0>        -0.1206
      5 C5         -1.0857   -1.9132    0.2601 C.ar      1 <0>        -0.0919
      6 C6         -1.7042   -3.1632    0.3125 C.ar      1 <0>        -0.1380
      7 C7         -2.4655   -3.6045   -0.7714 C.ar      1 <0>        -0.0574
      8 C8         -1.5580   -4.0141    1.5124 C.2       1 <0>         0.5639
      9 O1         -2.0979   -5.1024    1.5552 O.2       1 <0>        -0.5158
     10 N1         -0.8261   -3.5832    2.5589 N.am      1 <0>        -0.6717
     11 C9         -0.7674   -4.3434    3.7313 C.ar      1 <0>         0.1507
     12 C10        -0.7126   -3.7128    4.9676 C.ar      1 <0>        -0.1375
     13 C11        -0.6552   -4.4664    6.1235 C.ar      1 <0>        -0.0850
     14 C12        -0.6518   -5.8473    6.0509 C.ar      1 <0>        -0.1134
     15 C13        -0.7058   -6.4783    4.8216 C.ar      1 <0>        -0.0955
     16 C14        -0.7696   -5.7306    3.6622 C.ar      1 <0>        -0.1139
     17 C15        -0.5885   -6.6665    7.3143 C.3       1 <0>         0.1881
     18 C16         0.8465   -7.1469    7.5393 C.3       1 <0>        -0.1595
     19 N2         -1.4774   -7.8244    7.1905 N.am      1 <0>        -0.7156
     20 C17        -1.9830   -8.4070    8.2957 C.2       1 <0>         0.5117
     21 O2         -1.7021   -7.9727    9.3927 O.2       1 <0>        -0.5348
     22 C18        -2.8974   -9.5981    8.1684 C.3       1 <0>         0.1149
     23 N3         -3.3081  -10.0432    9.5024 N.am      1 <0>        -0.7194
     24 C19        -4.1325  -11.1011    9.6356 C.2       1 <0>         0.7092
     25 O3         -4.5353  -11.6860    8.6488 O.2       1 <0>        -0.5640
     26 N4         -4.5103  -11.5106   10.8628 N.am      1 <0>        -0.6834
     27 C20        -5.2752  -12.6680   11.0070 C.ar      1 <0>         0.2508
     28 C21        -5.0895  -13.7358   10.1350 C.ar      1 <0>        -0.1256
     29 C22        -5.8434  -14.8795   10.2745 C.ar      1 <0>        -0.0307
     30 C23        -6.7951  -14.9671   11.2932 C.ar      1 <0>        -0.1873
     31 C24        -6.9789  -13.8933   12.1675 C.ar      1 <0>        -0.0286
     32 C25        -6.2182  -12.7543   12.0261 C.ar      1 <0>        -0.1512
     33 C26        -7.6060  -16.1926   11.4453 C.cat     1 <0>         0.6036
     34 N5         -8.5135  -16.2746   12.4176 N.pl3     1 <0>        -0.7666
     35 N6         -7.4299  -17.2159   10.6103 N.pl3     1 <0>        -0.7656
     36 H1         -4.4429   -2.9650   -2.9420 H         1 <0>         0.0751
     37 H2         -3.0034   -2.8638   -3.9840 H         1 <0>         0.0714
     38 H3         -3.3690   -4.3739   -3.1154 H         1 <0>         0.0704
     39 H4         -2.0832   -0.9484   -2.8128 H         1 <0>         0.1308
     40 H5         -0.7477   -0.1566   -0.9049 H         1 <0>         0.1328
     41 H6         -0.4984   -1.5644    1.0967 H         1 <0>         0.1252
     42 H7         -2.9500   -4.5691   -0.7355 H         1 <0>         0.1371
     43 H8         -0.3401   -2.7459    2.4989 H         1 <0>         0.4125
     44 H9         -0.7145   -2.6343    5.0249 H         1 <0>         0.1304
     45 H10        -0.6126   -3.9767    7.0851 H         1 <0>         0.1307
     46 H11        -0.7026   -7.5570    4.7683 H         1 <0>         0.1239
     47 H12        -0.8162   -6.2240    2.7026 H         1 <0>         0.1421
     48 H13        -0.9038   -6.0551    8.1598 H         1 <0>         0.0998
     49 H14         1.5079   -6.2854    7.6314 H         1 <0>         0.0726
     50 H15         0.8923   -7.7394    8.4531 H         1 <0>         0.0646
     51 H16         1.1618   -7.7582    6.6938 H         1 <0>         0.0614
     52 H17        -1.7021   -8.1717    6.3132 H         1 <0>         0.4051
     53 H18        -3.7788   -9.3194    7.5910 H         1 <0>         0.1064
     54 H19        -2.3717  -10.4071    7.6613 H         1 <0>         0.1065
     55 H20        -2.9867   -9.5766   10.2897 H         1 <0>         0.4146
     56 H21        -4.2503  -11.0004   11.6458 H         1 <0>         0.4206
     57 H22        -4.3536  -13.6675    9.3476 H         1 <0>         0.1597
     58 H23        -5.6993  -15.7080    9.5967 H         1 <0>         0.1403
     59 H24        -7.7139  -13.9580   12.9562 H         1 <0>         0.1413
     60 H25        -6.3570  -11.9253   12.7043 H         1 <0>         0.1516
     61 H26        -8.6417  -15.5297   13.0255 H         1 <0>         0.4430
     62 H27        -6.7693  -17.1562    9.9025 H         1 <0>         0.4438
     63 H28        -7.9623  -18.0206   10.7101 H         1 <0>         0.4323
     64 H29        -9.0459  -17.0793   12.5175 H         1 <0>         0.4322
@<TRIPOS>BOND
     1    1    2 1
     2    1   36 1
     3    1   37 1
     4    1   38 1
     5    2    7 ar
     6    2    3 ar
     7    3    4 ar
     8    3   39 1
     9    4    5 ar
    10    4   40 1
    11    5    6 ar
    12    5   41 1
    13    6    7 ar
    14    6    8 1
    15    7   42 1
    16    8    9 2
    17    8   10 am
    18   10   11 1
    19   10   43 1
    20   11   16 ar
    21   11   12 ar
    22   12   13 ar
    23   12   44 1
    24   13   14 ar
    25   13   45 1
    26   14   15 ar
    27   14   17 1
    28   15   16 ar
    29   15   46 1
    30   16   47 1
    31   17   18 1
    32   17   19 1
    33   17   48 1
    34   18   49 1
    35   18   50 1
    36   18   51 1
    37   19   20 am
    38   19   52 1
    39   20   21 2
    40   20   22 1
    41   22   23 1
    42   22   53 1
    43   22   54 1
    44   23   24 am
    45   23   55 1
    46   24   25 2
    47   24   26 am
    48   26   27 1
    49   26   56 1
    50   27   32 ar
    51   27   28 ar
    52   28   29 ar
    53   28   57 1
    54   29   30 ar
    55   29   58 1
    56   30   31 ar
    57   30   33 1
    58   31   32 ar
    59   31   59 1
    60   32   60 1
    61   33   34 2
    62   33   35 1
    63   34   61 1
    64   34   64 1
    65   35   62 1
    66   35   63 1
@<TRIPOS>MOLECULE
CHEMBL339200__1
   64    66     0     0     0
SMALL
USER_CHARGES

@<TRIPOS>ATOM
      1 C1         -3.1955   -5.7406   -3.4400 C.3       1 <0>        -0.1187
      2 C2         -2.3973   -5.0568   -2.3600 C.ar      1 <0>        -0.0904
      3 C3         -1.7790   -3.8464   -2.6201 C.ar      1 <0>        -0.0890
      4 C4         -1.0440   -3.2122   -1.6344 C.ar      1 <0>        -0.1209
      5 C5         -0.9230   -3.7837   -0.3844 C.ar      1 <0>        -0.0923
      6 C6         -1.5445   -5.0041   -0.1154 C.ar      1 <0>        -0.1378
      7 C7         -2.2894   -5.6360   -1.1129 C.ar      1 <0>        -0.0572
      8 C8         -1.4188   -5.6223    1.2214 C.2       1 <0>         0.5634
      9 O1         -1.9612   -6.6853    1.4528 O.2       1 <0>        -0.5143
     10 N1         -0.7027   -5.0076    2.1835 N.am      1 <0>        -0.6720
     11 C9         -0.6639   -5.5417    3.4754 C.ar      1 <0>         0.1507
     12 C10        -0.6274   -4.6968    4.5771 C.ar      1 <0>        -0.1377
     13 C11        -0.5896   -5.2275    5.8515 C.ar      1 <0>        -0.0850
     14 C12        -0.5875   -6.5986    6.0314 C.ar      1 <0>        -0.1133
     15 C13        -0.6232   -7.4427    4.9366 C.ar      1 <0>        -0.0956
     16 C14        -0.6674   -6.9184    3.6597 C.ar      1 <0>        -0.1140
     17 C15        -0.5456   -7.1742    7.4235 C.3       1 <0>         0.1884
     18 C16        -1.9549   -7.5969    7.8432 C.3       1 <0>        -0.1603
     19 N2          0.3403   -8.3409    7.4431 N.am      1 <0>        -0.7155
     20 C17         0.9350   -8.7162    8.5929 C.2       1 <0>         0.5114
     21 O2          0.7367   -8.0881    9.6113 O.2       1 <0>        -0.5345
     22 C18         1.8463   -9.9162    8.6130 C.3       1 <0>         0.1151
     23 N3          2.3631  -10.1142    9.9695 N.am      1 <0>        -0.7194
     24 C19         3.2039  -11.1354   10.2279 C.2       1 <0>         0.7093
     25 O3          3.5334  -11.8923    9.3353 O.2       1 <0>        -0.5643
     26 N4          3.6794  -11.3175   11.4758 N.am      1 <0>        -0.6834
     27 C20         4.6314  -12.3067   11.7219 C.ar      1 <0>         0.2508
     28 C21         5.5806  -12.6131   10.7521 C.ar      1 <0>        -0.1257
     29 C22         6.5215  -13.5894   10.9919 C.ar      1 <0>        -0.0307
     30 C23         6.5225  -14.2720   12.2106 C.ar      1 <0>        -0.1872
     31 C24         5.5684  -13.9617   13.1825 C.ar      1 <0>        -0.0285
     32 C25         4.6334  -12.9808   12.9387 C.ar      1 <0>        -0.1512
     33 C26         7.5303  -15.3204   12.4708 C.cat     1 <0>         0.6036
     34 N5          7.5301  -15.9708   13.6339 N.pl3     1 <0>        -0.7666
     35 N6          8.4396  -15.6157   11.5426 N.pl3     1 <0>        -0.7656
     36 H1         -4.2313   -5.4041   -3.3946 H         1 <0>         0.0755
     37 H2         -2.7753   -5.4925   -4.4147 H         1 <0>         0.0712
     38 H3         -3.1573   -6.8198   -3.2919 H         1 <0>         0.0706
     39 H4         -1.8703   -3.3950   -3.5970 H         1 <0>         0.1307
     40 H5         -0.5636   -2.2679   -1.8440 H         1 <0>         0.1326
     41 H6         -0.3484   -3.2879    0.3840 H         1 <0>         0.1249
     42 H7         -2.7761   -6.5785   -0.9099 H         1 <0>         0.1375
     43 H8         -0.2143   -4.1946    1.9800 H         1 <0>         0.4121
     44 H9         -0.6283   -3.6258    4.4373 H         1 <0>         0.1304
     45 H10        -0.5612   -4.5710    6.7086 H         1 <0>         0.1307
     46 H11        -0.6211   -8.5131    5.0804 H         1 <0>         0.1240
     47 H12        -0.6998   -7.5781    2.8052 H         1 <0>         0.1420
     48 H13        -0.1705   -6.4215    8.1168 H         1 <0>         0.1000
     49 H14        -1.9246   -8.0133    8.8501 H         1 <0>         0.0647
     50 H15        -2.6140   -6.7289    7.8286 H         1 <0>         0.0726
     51 H16        -2.3301   -8.3497    7.1499 H         1 <0>         0.0617
     52 H17         0.4988   -8.8432    6.6286 H         1 <0>         0.4048
     53 H18         1.2893  -10.8007    8.3038 H         1 <0>         0.1064
     54 H19         2.6779   -9.7525    7.9277 H         1 <0>         0.1063
     55 H20         2.1002   -9.5104   10.6816 H         1 <0>         0.4147
     56 H21         3.3595  -10.7607   12.2028 H         1 <0>         0.4206
     57 H22         5.5792  -12.0850    9.8101 H         1 <0>         0.1597
     58 H23         7.2576  -13.8274   10.2383 H         1 <0>         0.1402
     59 H24         5.5668  -14.4877   14.1257 H         1 <0>         0.1414
     60 H25         3.8980  -12.7375   13.6914 H         1 <0>         0.1517
     61 H26         6.8682  -15.7558   14.3096 H         1 <0>         0.4431
     62 H27         8.4398  -15.1423   10.6959 H         1 <0>         0.4437
     63 H28         9.1013  -16.3040   11.7135 H         1 <0>         0.4323
     64 H29         8.1918  -16.6591   13.8048 H         1 <0>         0.4322
@<TRIPOS>BOND
     1    1    2 1
     2    1   36 1
     3    1   37 1
     4    1   38 1
     5    2    7 ar
     6    2    3 ar
     7    3    4 ar
     8    3   39 1
     9    4    5 ar
    10    4   40 1
    11    5    6 ar
    12    5   41 1
    13    6    7 ar
    14    6    8 1
    15    7   42 1
    16    8    9 2
    17    8   10 am
    18   10   11 1
    19   10   43 1
    20   11   16 ar
    21   11   12 ar
    22   12   13 ar
    23   12   44 1
    24   13   14 ar
    25   13   45 1
    26   14   15 ar
    27   14   17 1
    28   15   16 ar
    29   15   46 1
    30   16   47 1
    31   17   18 1
    32   17   19 1
    33   17   48 1
    34   18   49 1
    35   18   50 1
    36   18   51 1
    37   19   20 am
    38   19   52 1
    39   20   21 2
    40   20   22 1
    41   22   23 1
    42   22   53 1
    43   22   54 1
    44   23   24 am
    45   23   55 1
    46   24   25 2
    47   24   26 am
    48   26   27 1
    49   26   56 1
    50   27   32 ar
    51   27   28 ar
    52   28   29 ar
    53   28   57 1
    54   29   30 ar
    55   29   58 1
    56   30   31 ar
    57   30   33 1
    58   31   32 ar
    59   31   59 1
    60   32   60 1
    61   33   34 2
    62   33   35 1
    63   34   61 1
    64   34   64 1
    65   35   62 1
    66   35   63 1
@<TRIPOS>MOLECULE
CHEMBL290334
   53    55     0     0     0
SMALL
USER_CHARGES

@<TRIPOS>ATOM
      1 C1         -0.0359    1.5039    0.0219 C.3       1 <0>        -0.1607
      2 C2         -0.0041   -0.0257    0.0076 C.3       1 <0>         0.1886
      3 C3          0.7292   -0.5244    1.2260 C.ar      1 <0>        -0.0887
      4 C4          2.1119   -0.5241    1.2466 C.ar      1 <0>        -0.1054
      5 C5          2.7925   -0.9789    2.3614 C.ar      1 <0>        -0.0992
      6 C6          2.0871   -1.4367    3.4606 C.ar      1 <0>         0.0824
      7 C7          0.6933   -1.4381    3.4394 C.ar      1 <0>         0.1023
      8 C8          0.0174   -0.9756    2.3224 C.ar      1 <0>        -0.1096
      9 N1         -0.0090   -1.9070    4.5587 N.am      1 <0>        -0.6621
     10 C9          0.6467   -2.0470    5.7315 C.2       1 <0>         0.4902
     11 O1          0.0674   -2.4805    6.7050 O.2       1 <0>        -0.5009
     12 C10         2.1014   -1.6626    5.8252 C.3       1 <0>         0.0500
     13 O2          2.7398   -1.8866    4.5654 O.3       1 <0>        -0.2996
     14 N2          0.6840   -0.4886   -1.2000 N.am      1 <0>        -0.7164
     15 C11         0.0025   -0.6207   -2.3552 C.2       1 <0>         0.5122
     16 O3         -1.1805   -0.3563   -2.3951 O.2       1 <0>        -0.5330
     17 C12         0.7104   -1.0969   -3.5975 C.3       1 <0>         0.1156
     18 N3         -0.2413   -1.1555   -4.7097 N.am      1 <0>        -0.7202
     19 C13         0.1705   -1.5571   -5.9286 C.2       1 <0>         0.7103
     20 O4          1.3319   -1.8708   -6.1050 O.2       1 <0>        -0.5654
     21 N4         -0.7050   -1.6110   -6.9518 N.am      1 <0>        -0.6838
     22 C14        -0.2603   -1.9337   -8.2338 C.ar      1 <0>         0.2464
     23 C15         0.7671   -2.8567   -8.4004 C.ar      1 <0>        -0.1243
     24 C16         1.2086   -3.1770   -9.6647 C.ar      1 <0>        -0.0327
     25 C17         0.6233   -2.5744  -10.7807 C.ar      1 <0>        -0.1852
     26 C18        -0.4085   -1.6483  -10.6102 C.ar      1 <0>        -0.0307
     27 C19        -0.8490   -1.3361   -9.3436 C.ar      1 <0>        -0.1494
     28 C20         1.0950   -2.9154  -12.1386 C.cat     1 <0>         0.6033
     29 N5          0.5357   -2.3398  -13.2023 N.pl3     1 <0>        -0.7663
     30 N6          2.0796   -3.7987  -12.2996 N.pl3     1 <0>        -0.7652
     31 H1          0.9840    1.8885    0.0149 H         1 <0>         0.0635
     32 H2         -0.5663    1.8645   -0.8593 H         1 <0>         0.0666
     33 H3         -0.5479    1.8483    0.9204 H         1 <0>         0.0729
     34 H4         -1.0240   -0.4104    0.0147 H         1 <0>         0.1017
     35 H5          2.6624   -0.1670    0.3888 H         1 <0>         0.1334
     36 H6          3.8725   -0.9770    2.3741 H         1 <0>         0.1450
     37 H7         -1.0624   -0.9708    2.3064 H         1 <0>         0.1374
     38 H8         -0.9513   -2.1271    4.4920 H         1 <0>         0.4182
     39 H9          2.1817   -0.6084    6.0903 H         1 <0>         0.1043
     40 H10         2.5877   -2.2668    6.5910 H         1 <0>         0.1504
     41 H11         1.6302   -0.7001   -1.1682 H         1 <0>         0.4056
     42 H12         1.5157   -0.4051   -3.8445 H         1 <0>         0.1068
     43 H13         1.1251   -2.0894   -3.4215 H         1 <0>         0.1069
     44 H14        -1.1678   -0.9053   -4.5690 H         1 <0>         0.4146
     45 H15        -1.6443   -1.4255   -6.7967 H         1 <0>         0.4206
     46 H16         1.2192   -3.3222   -7.5371 H         1 <0>         0.1647
     47 H17         2.0067   -3.8931   -9.7933 H         1 <0>         0.1403
     48 H18        -0.8629   -1.1808  -11.4712 H         1 <0>         0.1412
     49 H19        -1.6495   -0.6233   -9.2113 H         1 <0>         0.1515
     50 H20        -0.1811   -1.6968  -13.0850 H         1 <0>         0.4431
     51 H21         2.4867   -4.2177  -11.5253 H         1 <0>         0.4438
     52 H22         2.3893   -4.0226  -13.1912 H         1 <0>         0.4324
     53 H23         0.8454   -2.5637  -14.0938 H         1 <0>         0.4323
@<TRIPOS>BOND
     1    1    2 1
     2    1   31 1
     3    1   32 1
     4    1   33 1
     5    2    3 1
     6    2   14 1
     7    2   34 1
     8    3    8 ar
     9    3    4 ar
    10    4    5 ar
    11    4   35 1
    12    5    6 ar
    13    5   36 1
    14    6   13 1
    15    6    7 ar
    16    7    8 ar
    17    7    9 1
    18    8   37 1
    19    9   10 am
    20    9   38 1
    21   10   11 2
    22   10   12 1
    23   12   13 1
    24   12   39 1
    25   12   40 1
    26   14   15 am
    27   14   41 1
    28   15   16 2
    29   15   17 1
    30   17   18 1
    31   17   42 1
    32   17   43 1
    33   18   19 am
    34   18   44 1
    35   19   20 2
    36   19   21 am
    37   21   22 1
    38   21   45 1
    39   22   27 ar
    40   22   23 ar
    41   23   24 ar
    42   23   46 1
    43   24   25 ar
    44   24   47 1
    45   25   26 ar
    46   25   28 1
    47   26   27 ar
    48   26   48 1
    49   27   49 1
    50   28   29 2
    51   28   30 1
    52   29   50 1
    53   29   53 1
    54   30   51 1
    55   30   52 1
@<TRIPOS>MOLECULE
CHEMBL290334__1
   53    55     0     0     0
SMALL
USER_CHARGES

@<TRIPOS>ATOM
      1 C1         -0.0033    1.5479    0.0220 C.3       1 <0>        -0.1609
      2 C2          0.0065    0.0180    0.0078 C.3       1 <0>         0.1887
      3 C3          0.7070   -0.4683   -1.2347 C.ar      1 <0>        -0.0885
      4 C4          2.0887   -0.4980   -1.2802 C.ar      1 <0>        -0.1056
      5 C5          2.7393   -0.9442   -2.4163 C.ar      1 <0>        -0.0991
      6 C6          2.0046   -1.3620   -3.5122 C.ar      1 <0>         0.0823
      7 C7          0.6118   -1.3310   -3.4668 C.ar      1 <0>         0.1023
      8 C8         -0.0340   -0.8890   -2.3239 C.ar      1 <0>        -0.1095
      9 N1         -0.1204   -1.7548   -4.5849 N.am      1 <0>        -0.6619
     10 C9          0.5061   -2.4687   -5.5454 C.2       1 <0>         0.4900
     11 O1         -0.0993   -2.8190   -6.5364 O.2       1 <0>        -0.5010
     12 C10         1.9610   -2.8279   -5.3808 C.3       1 <0>         0.0502
     13 O2          2.6276   -1.8046   -4.6370 O.3       1 <0>        -0.2993
     14 N2          0.7128   -0.4768    1.1920 N.am      1 <0>        -0.7164
     15 C11         0.0537   -0.6206    2.3587 C.2       1 <0>         0.5121
     16 O3         -1.1243   -0.3403    2.4283 O.2       1 <0>        -0.5329
     17 C12         0.7803   -1.1296    3.5769 C.3       1 <0>         0.1156
     18 N3         -0.1488   -1.1954    4.7077 N.am      1 <0>        -0.7202
     19 C13         0.2825   -1.6252    5.9101 C.2       1 <0>         0.7104
     20 O4          1.4425   -1.9585    6.0563 O.2       1 <0>        -0.5654
     21 N4         -0.5722   -1.6857    6.9504 N.am      1 <0>        -0.6839
     22 C14        -0.1519   -2.2202    8.1682 C.ar      1 <0>         0.2464
     23 C15         1.1549   -2.0188    8.6005 C.ar      1 <0>        -0.1243
     24 C16         1.5730   -2.5456    9.8020 C.ar      1 <0>        -0.0328
     25 C17         0.6834   -3.2825   10.5873 C.ar      1 <0>        -0.1852
     26 C18        -0.6283   -3.4826   10.1506 C.ar      1 <0>        -0.0307
     27 C19        -1.0419   -2.9488    8.9506 C.ar      1 <0>        -0.1494
     28 C20         1.1289   -3.8495   11.8767 C.cat     1 <0>         0.6033
     29 N5          0.2790   -4.5522   12.6247 N.pl3     1 <0>        -0.7663
     30 N6          2.3806   -3.6581   12.2917 N.pl3     1 <0>        -0.7652
     31 H1          1.0220    1.9179    0.0145 H         1 <0>         0.0637
     32 H2         -0.5289    1.9161   -0.8591 H         1 <0>         0.0732
     33 H3         -0.5100    1.8997    0.9207 H         1 <0>         0.0667
     34 H4         -1.0188   -0.3520    0.0152 H         1 <0>         0.1016
     35 H5          2.6621   -0.1718   -0.4251 H         1 <0>         0.1334
     36 H6          3.8186   -0.9662   -2.4482 H         1 <0>         0.1450
     37 H7         -1.1131   -0.8695   -2.2849 H         1 <0>         0.1375
     38 H8         -1.0625   -1.5389   -4.6673 H         1 <0>         0.4185
     39 H9          2.0428   -3.7754   -4.8482 H         1 <0>         0.1033
     40 H10         2.4245   -2.9231   -6.3628 H         1 <0>         0.1504
     41 H11         1.6549   -0.7010    1.1364 H         1 <0>         0.4055
     42 H12         1.1768   -2.1245    3.3742 H         1 <0>         0.1065
     43 H13         1.6006   -0.4541    3.8194 H         1 <0>         0.1071
     44 H14        -1.0743   -0.9295    4.5911 H         1 <0>         0.4146
     45 H15        -1.4797   -1.3575    6.8522 H         1 <0>         0.4206
     46 H16         1.8423   -1.4489    7.9930 H         1 <0>         0.1647
     47 H17         2.5879   -2.3894   10.1368 H         1 <0>         0.1403
     48 H18        -1.3185   -4.0519   10.7556 H         1 <0>         0.1412
     49 H19        -2.0571   -3.0998    8.6144 H         1 <0>         0.1515
     50 H20        -0.6321   -4.6915   12.3226 H         1 <0>         0.4431
     51 H21         2.9992   -3.1465   11.7472 H         1 <0>         0.4438
     52 H22         2.6731   -4.0304   13.1383 H         1 <0>         0.4324
     53 H23         0.5716   -4.9245   13.4713 H         1 <0>         0.4324
@<TRIPOS>BOND
     1    1    2 1
     2    1   31 1
     3    1   32 1
     4    1   33 1
     5    2    3 1
     6    2   14 1
     7    2   34 1
     8    3    8 ar
     9    3    4 ar
    10    4    5 ar
    11    4   35 1
    12    5    6 ar
    13    5   36 1
    14    6   13 1
    15    6    7 ar
    16    7    8 ar
    17    7    9 1
    18    8   37 1
    19    9   10 am
    20    9   38 1
    21   10   11 2
    22   10   12 1
    23   12   13 1
    24   12   39 1
    25   12   40 1
    26   14   15 am
    27   14   41 1
    28   15   16 2
    29   15   17 1
    30   17   18 1
    31   17   42 1
    32   17   43 1
    33   18   19 am
    34   18   44 1
    35   19   20 2
    36   19   21 am
    37   21   22 1
    38   21   45 1
    39   22   27 ar
    40   22   23 ar
    41   23   24 ar
    42   23   46 1
    43   24   25 ar
    44   24   47 1
    45   25   26 ar
    46   25   28 1
    47   26   27 ar
    48   26   48 1
    49   27   49 1
    50   28   29 2
    51   28   30 1
    52   29   50 1
    53   29   53 1
    54   30   51 1
    55   30   52 1
@<TRIPOS>MOLECULE
CHEMBL199236
   51    53     0     0     0
SMALL
USER_CHARGES

@<TRIPOS>ATOM
      1 C1         -0.0187    1.5258    0.0104 C.3       1 <0>        -0.1524
      2 C2          0.0021   -0.0041    0.0020 C.3       1 <0>         0.0532
      3 O1          0.6709   -0.4649   -1.1737 O.3       1 <0>        -0.3131
      4 C3          0.7768   -1.8101   -1.3361 C.ar      1 <0>         0.1383
      5 C4          0.2429   -2.6665   -0.3869 C.ar      1 <0>        -0.2017
      6 C5          0.3530   -4.0440   -0.5572 C.ar      1 <0>        -0.0049
      7 C6          0.9997   -4.5537   -1.6818 C.ar      1 <0>        -0.1271
      8 C7          1.5287   -3.6934   -2.6226 C.ar      1 <0>        -0.0252
      9 C8          1.4145   -2.3257   -2.4558 C.ar      1 <0>        -0.1368
     10 C9          2.2275   -4.2464   -3.8379 C.3       1 <0>         0.0976
     11 C10         3.7189   -4.1899   -3.6289 C.2       1 <0>         0.4939
     12 O2          4.2990   -5.1328   -3.1181 O.co2     1 <0>        -0.6716
     13 O3          4.3453   -3.2013   -3.9706 O.co2     1 <0>        -0.6671
     14 N1          1.8685   -3.4486   -5.0130 N.pl3     1 <0>        -0.6603
     15 C11         1.9336   -4.0126   -6.2829 C.ar      1 <0>         0.3055
     16 C12         2.3344   -5.3368   -6.4351 C.ar      1 <0>        -0.1976
     17 C13         2.3993   -5.8977   -7.6904 C.ar      1 <0>        -0.0010
     18 C14         2.0623   -5.1364   -8.8125 C.ar      1 <0>        -0.2546
     19 C15         1.6603   -3.8074   -8.6566 C.ar      1 <0>        -0.0026
     20 C16         1.5922   -3.2534   -7.3984 C.ar      1 <0>        -0.2059
     21 C17         2.1314   -5.7352  -10.1606 C.cat     1 <0>         0.6021
     22 N2          1.8097   -5.0079  -11.2301 N.pl3     1 <0>        -0.7830
     23 N3          2.5155   -7.0029  -10.3079 N.pl3     1 <0>        -0.7810
     24 C18        -0.2161   -4.9668    0.4560 C.ar      1 <0>        -0.0916
     25 C19        -0.8711   -4.4658    1.5844 C.ar      1 <0>        -0.0681
     26 C20        -1.3850   -5.3680    2.4998 C.ar      1 <0>        -0.1696
     27 C21        -1.2352   -6.7238    2.2706 C.ar      1 <0>         0.0961
     28 N4         -0.6115   -7.1668    1.1963 N.ar      1 <0>        -0.4802
     29 C22        -0.1113   -6.3465    0.2949 C.ar      1 <0>         0.1132
     30 H1          1.0039    1.9031    0.0027 H         1 <0>         0.0679
     31 H2         -0.5459    1.8868   -0.8726 H         1 <0>         0.0660
     32 H3         -0.5289    1.8773    0.9072 H         1 <0>         0.0783
     33 H4          0.5293   -0.3651    0.8851 H         1 <0>         0.0620
     34 H5         -1.0205   -0.3814    0.0098 H         1 <0>         0.0606
     35 H6         -0.2569   -2.2667    0.4830 H         1 <0>         0.1298
     36 H7          1.0872   -5.6216   -1.8168 H         1 <0>         0.1311
     37 H8          1.8261   -1.6566   -3.1969 H         1 <0>         0.1320
     38 H9          1.9214   -5.2809   -3.9937 H         1 <0>         0.0984
     39 H10         1.5854   -2.5271   -4.9055 H         1 <0>         0.4083
     40 H11         2.5952   -5.9247   -5.5674 H         1 <0>         0.1468
     41 H12         2.7108   -6.9251   -7.8079 H         1 <0>         0.1293
     42 H13         1.3995   -3.2165   -9.5223 H         1 <0>         0.1281
     43 H14         1.2772   -2.2276   -7.2770 H         1 <0>         0.1395
     44 H15         1.5301   -4.0853  -11.1230 H         1 <0>         0.4392
     45 H16         2.7497   -7.5323   -9.5295 H         1 <0>         0.4408
     46 H17         2.5609   -7.3962  -11.1934 H         1 <0>         0.4241
     47 H18        -0.9735   -3.4018    1.7384 H         1 <0>         0.1340
     48 H19        -1.8970   -5.0171    3.3836 H         1 <0>         0.1375
     49 H20        -1.6348   -7.4306    2.9827 H         1 <0>         0.1572
     50 H21         0.3884   -6.7472   -0.5747 H         1 <0>         0.1607
     51 H22         1.8550   -5.4012  -12.1156 H         1 <0>         0.4239
@<TRIPOS>BOND
     1    1    2 1
     2    1   30 1
     3    1   31 1
     4    1   32 1
     5    2    3 1
     6    2   33 1
     7    2   34 1
     8    3    4 1
     9    4    9 ar
    10    4    5 ar
    11    5    6 ar
    12    5   35 1
    13    6    7 ar
    14    6   24 1
    15    7    8 ar
    16    7   36 1
    17    8    9 ar
    18    8   10 1
    19    9   37 1
    20   10   11 1
    21   10   14 1
    22   10   38 1
    23   11   12 2
    24   11   13 1
    25   14   15 1
    26   14   39 1
    27   15   20 ar
    28   15   16 ar
    29   16   17 ar
    30   16   40 1
    31   17   18 ar
    32   17   41 1
    33   18   19 ar
    34   18   21 1
    35   19   20 ar
    36   19   42 1
    37   20   43 1
    38   21   22 2
    39   21   23 1
    40   22   44 1
    41   22   51 1
    42   23   45 1
    43   23   46 1
    44   24   29 ar
    45   24   25 ar
    46   25   26 ar
    47   25   47 1
    48   26   27 ar
    49   26   48 1
    50   27   28 ar
    51   27   49 1
    52   28   29 ar
    53   29   50 1
@<TRIPOS>MOLECULE
CHEMBL199236__1
   51    53     0     0     0
SMALL
USER_CHARGES

@<TRIPOS>ATOM
      1 C1         -0.0187    1.5258    0.0104 C.3       1 <0>        -0.1524
      2 C2          0.0021   -0.0041    0.0020 C.3       1 <0>         0.0533
      3 O1          0.6709   -0.4649   -1.1737 O.3       1 <0>        -0.3136
      4 C3          0.7768   -1.8101   -1.3361 C.ar      1 <0>         0.1386
      5 C4          0.2429   -2.6665   -0.3869 C.ar      1 <0>        -0.2018
      6 C5          0.3530   -4.0440   -0.5572 C.ar      1 <0>        -0.0042
      7 C6          0.9997   -4.5537   -1.6818 C.ar      1 <0>        -0.1226
      8 C7          1.5287   -3.6934   -2.6226 C.ar      1 <0>        -0.0210
      9 C8          1.4145   -2.3257   -2.4558 C.ar      1 <0>        -0.1423
     10 C9          2.2275   -4.2464   -3.8379 C.3       1 <0>         0.0961
     11 C10         1.2886   -4.2126   -5.0161 C.2       1 <0>         0.4926
     12 O2          1.4869   -3.4321   -5.9315 O.co2     1 <0>        -0.6688
     13 O3          0.3306   -4.9658   -5.0540 O.co2     1 <0>        -0.6688
     14 N1          3.4106   -3.4342   -4.1327 N.pl3     1 <0>        -0.6588
     15 C11         4.4788   -3.9888   -4.8300 C.ar      1 <0>         0.3116
     16 C12         4.4199   -5.3140   -5.2520 C.ar      1 <0>        -0.1950
     17 C13         5.4753   -5.8653   -5.9425 C.ar      1 <0>        -0.0018
     18 C14         6.6065   -5.0934   -6.2198 C.ar      1 <0>        -0.2552
     19 C15         6.6628   -3.7636   -5.7950 C.ar      1 <0>        -0.0025
     20 C16         5.6022   -3.2160   -5.1095 C.ar      1 <0>        -0.2061
     21 C17         7.7406   -5.6823   -6.9601 C.cat     1 <0>         0.6018
     22 N2          8.8189   -4.9449   -7.2239 N.pl3     1 <0>        -0.7833
     23 N3          7.6857   -6.9511   -7.3643 N.pl3     1 <0>        -0.7815
     24 C18        -0.2161   -4.9668    0.4560 C.ar      1 <0>        -0.0914
     25 C19        -0.8711   -4.4658    1.5844 C.ar      1 <0>        -0.0681
     26 C20        -1.3850   -5.3680    2.4998 C.ar      1 <0>        -0.1698
     27 C21        -1.2352   -6.7238    2.2706 C.ar      1 <0>         0.0961
     28 N4         -0.6115   -7.1668    1.1963 N.ar      1 <0>        -0.4805
     29 C22        -0.1113   -6.3465    0.2949 C.ar      1 <0>         0.1135
     30 H1          1.0039    1.9031    0.0027 H         1 <0>         0.0660
     31 H2         -0.5459    1.8868   -0.8726 H         1 <0>         0.0678
     32 H3         -0.5289    1.8773    0.9072 H         1 <0>         0.0784
     33 H4          0.5293   -0.3651    0.8851 H         1 <0>         0.0608
     34 H5         -1.0205   -0.3814    0.0098 H         1 <0>         0.0620
     35 H6         -0.2569   -2.2667    0.4830 H         1 <0>         0.1297
     36 H7          1.0872   -5.6216   -1.8168 H         1 <0>         0.1307
     37 H8          1.8261   -1.6566   -3.1969 H         1 <0>         0.1300
     38 H9          2.5319   -5.2752   -3.6452 H         1 <0>         0.0986
     39 H10         3.4490   -2.5097   -3.8418 H         1 <0>         0.4072
     40 H11         3.5455   -5.9102   -5.0370 H         1 <0>         0.1431
     41 H12         5.4292   -6.8936   -6.2693 H         1 <0>         0.1285
     42 H13         7.5360   -3.1647   -6.0077 H         1 <0>         0.1277
     43 H14         5.6433   -2.1868   -4.7848 H         1 <0>         0.1389
     44 H15         8.8589   -4.0214   -6.9297 H         1 <0>         0.4392
     45 H16         6.9008   -7.4878   -7.1722 H         1 <0>         0.4406
     46 H17         8.4306   -7.3378   -7.8505 H         1 <0>         0.4238
     47 H18        -0.9735   -3.4018    1.7384 H         1 <0>         0.1340
     48 H19        -1.8970   -5.0171    3.3836 H         1 <0>         0.1374
     49 H20        -1.6348   -7.4306    2.9827 H         1 <0>         0.1571
     50 H21         0.3884   -6.7472   -0.5747 H         1 <0>         0.1607
     51 H22         9.5639   -5.3316   -7.7101 H         1 <0>         0.4237
@<TRIPOS>BOND
     1    1    2 1
     2    1   30 1
     3    1   31 1
     4    1   32 1
     5    2    3 1
     6    2   33 1
     7    2   34 1
     8    3    4 1
     9    4    9 ar
    10    4    5 ar
    11    5    6 ar
    12    5   35 1
    13    6    7 ar
    14    6   24 1
    15    7    8 ar
    16    7   36 1
    17    8    9 ar
    18    8   10 1
    19    9   37 1
    20   10   11 1
    21   10   14 1
    22   10   38 1
    23   11   12 2
    24   11   13 1
    25   14   15 1
    26   14   39 1
    27   15   20 ar
    28   15   16 ar
    29   16   17 ar
    30   16   40 1
    31   17   18 ar
    32   17   41 1
    33   18   19 ar
    34   18   21 1
    35   19   20 ar
    36   19   42 1
    37   20   43 1
    38   21   22 2
    39   21   23 1
    40   22   44 1
    41   22   51 1
    42   23   45 1
    43   23   46 1
    44   24   29 ar
    45   24   25 ar
    46   25   26 ar
    47   25   47 1
    48   26   27 ar
    49   26   48 1
    50   27   28 ar
    51   27   49 1
    52   28   29 ar
    53   29   50 1
@<TRIPOS>MOLECULE
CHEMBL204858
   70    73     0     0     0
SMALL
USER_CHARGES

@<TRIPOS>ATOM
      1 C1         -1.4915    0.5709    2.2777 C.3       1 <0>        -0.1620
      2 C2         -0.9406   -0.3017    1.1481 C.3       1 <0>         0.1634
      3 C3         -1.8234   -0.1480   -0.0920 C.3       1 <0>        -0.1663
      4 N1          0.4264    0.1177    0.8294 N.pl3     1 <0>        -0.6532
      5 C4          1.4813   -0.7870    0.9561 C.ar      1 <0>         0.2196
      6 C5          2.1766   -0.9096    2.1586 C.ar      1 <0>         0.0328
      7 C6          3.2188   -1.8193    2.2460 C.ar      1 <0>         0.2983
      8 N2          3.5558   -2.5661    1.2053 N.ar      1 <0>        -0.5380
      9 C7          2.9187   -2.4773    0.0477 C.ar      1 <0>         0.3312
     10 C8          1.8621   -1.5946   -0.1148 C.ar      1 <0>         0.0519
     11 F1          1.2133   -1.5140   -1.2971 F         1 <0>        -0.0914
     12 O1          3.3011   -3.2643   -0.9906 O.3       1 <0>        -0.1686
     13 C9          4.4294   -4.0017   -0.8482 C.ar      1 <0>         0.1229
     14 C10         5.5327   -3.4656   -0.1976 C.ar      1 <0>        -0.1467
     15 C11         6.6815   -4.2117   -0.0507 C.ar      1 <0>        -0.0915
     16 C12         6.7461   -5.5133   -0.5543 C.ar      1 <0>        -0.0890
     17 C13         5.6499   -6.0624   -1.2069 C.ar      1 <0>        -0.0441
     18 C14         4.4820   -5.3107   -1.3534 C.ar      1 <0>        -0.1239
     19 C15         3.3134   -5.8863   -2.0386 C.2       1 <0>         0.5152
     20 O2          3.3623   -7.0271   -2.4776 O.co2     1 <0>        -0.6786
     21 O3          2.2932   -5.2239   -2.1690 O.co2     1 <0>        -0.6592
     22 C16         7.9870   -6.3095   -0.3923 C.ar      1 <0>         0.0197
     23 C17         8.0753   -7.6115   -0.8936 C.ar      1 <0>        -0.1657
     24 C18         9.2482   -8.3170   -0.7210 C.ar      1 <0>         0.1067
     25 N3         10.2763   -7.7785   -0.0934 N.ar      1 <0>        -0.4932
     26 C19        10.2343   -6.5533    0.3944 C.ar      1 <0>         0.0959
     27 C20         9.1022   -5.7764    0.2606 C.ar      1 <0>        -0.1786
     28 O4          3.9025   -1.9461    3.4121 O.3       1 <0>        -0.2176
     29 C21         4.8149   -2.9485    3.5110 C.ar      1 <0>         0.1090
     30 C22         4.7028   -4.0715    2.7019 C.ar      1 <0>        -0.0729
     31 C23         5.6278   -5.0940    2.7987 C.ar      1 <0>        -0.0814
     32 C24         6.6692   -5.0052    3.7002 C.ar      1 <0>        -0.0725
     33 C25         6.7902   -3.8806    4.5169 C.ar      1 <0>        -0.1465
     34 C26         5.8594   -2.8471    4.4147 C.ar      1 <0>        -0.0812
     35 C27         7.9056   -3.7822    5.4844 C.cat     1 <0>         0.6097
     36 N4          8.4185   -4.8862    6.0236 N.pl3     1 <0>        -0.7591
     37 N5          8.3963   -2.5896    5.8156 N.pl3     1 <0>        -0.7610
     38 F2          1.8392   -0.1511    3.2245 F         1 <0>        -0.1071
     39 C28         0.6860    1.4869    0.3776 C.3       1 <0>         0.1634
     40 C29         1.6457    2.1723    1.3524 C.3       1 <0>        -0.1652
     41 C30         1.3138    1.4534   -1.0173 C.3       1 <0>        -0.1699
     42 H1         -0.8625    0.4614    3.1611 H         1 <0>         0.0588
     43 H2         -1.4958    1.6141    1.9618 H         1 <0>         0.0586
     44 H3         -2.5086    0.2588    2.5148 H         1 <0>         0.0651
     45 H4         -0.9362   -1.3449    1.4640 H         1 <0>         0.0787
     46 H5         -1.8278    0.8952   -0.4079 H         1 <0>         0.0585
     47 H6         -1.4309   -0.7696   -0.8968 H         1 <0>         0.0649
     48 H7         -2.8405   -0.4600    0.1451 H         1 <0>         0.0656
     49 H8          5.4903   -2.4602    0.1943 H         1 <0>         0.1265
     50 H9          7.5363   -3.7883    0.4558 H         1 <0>         0.1200
     51 H10         5.6991   -7.0685   -1.5965 H         1 <0>         0.1435
     52 H11         7.2375   -8.0587   -1.4080 H         1 <0>         0.1443
     53 H12         9.3258   -9.3237   -1.1044 H         1 <0>         0.1586
     54 H13        11.0991   -6.1519    0.9016 H         1 <0>         0.1500
     55 H14         9.0763   -4.7726    0.6583 H         1 <0>         0.1296
     56 H15         3.8899   -4.1463    1.9948 H         1 <0>         0.1777
     57 H16         5.5351   -5.9654    2.1674 H         1 <0>         0.1505
     58 H17         7.3900   -5.8061    3.7735 H         1 <0>         0.1398
     59 H18         5.9505   -1.9721    5.0413 H         1 <0>         0.1455
     60 H19         9.1496   -4.8217    6.6578 H         1 <0>         0.4315
     61 H20         8.0226   -1.7853    5.4228 H         1 <0>         0.4465
     62 H21         9.1274   -2.5251    6.4498 H         1 <0>         0.4311
     63 H22        -0.2517    2.0413    0.3408 H         1 <0>         0.0934
     64 H23         2.5835    1.6179    1.3893 H         1 <0>         0.0490
     65 H24         1.8388    3.1910    1.0163 H         1 <0>         0.0645
     66 H25         1.1985    2.1962    2.3462 H         1 <0>         0.0627
     67 H26         0.6301    0.9652   -1.7117 H         1 <0>         0.0671
     68 H27         1.5069    2.4721   -1.3534 H         1 <0>         0.0651
     69 H28         2.2515    0.8990   -0.9804 H         1 <0>         0.0504
     70 H29         8.0610   -5.7550    5.7823 H         1 <0>         0.4471
@<TRIPOS>BOND
     1    1    2 1
     2    1   42 1
     3    1   43 1
     4    1   44 1
     5    2    3 1
     6    2    4 1
     7    2   45 1
     8    3   46 1
     9    3   47 1
    10    3   48 1
    11    4    5 1
    12    4   39 1
    13    5   10 ar
    14    5    6 ar
    15    6    7 ar
    16    6   38 1
    17    7    8 ar
    18    7   28 1
    19    8    9 ar
    20    9   10 ar
    21    9   12 1
    22   10   11 1
    23   12   13 1
    24   13   18 ar
    25   13   14 ar
    26   14   15 ar
    27   14   49 1
    28   15   16 ar
    29   15   50 1
    30   16   17 ar
    31   16   22 1
    32   17   18 ar
    33   17   51 1
    34   18   19 1
    35   19   20 2
    36   19   21 1
    37   22   27 ar
    38   22   23 ar
    39   23   24 ar
    40   23   52 1
    41   24   25 ar
    42   24   53 1
    43   25   26 ar
    44   26   27 ar
    45   26   54 1
    46   27   55 1
    47   28   29 1
    48   29   34 ar
    49   29   30 ar
    50   30   31 ar
    51   30   56 1
    52   31   32 ar
    53   31   57 1
    54   32   33 ar
    55   32   58 1
    56   33   34 ar
    57   33   35 1
    58   34   59 1
    59   35   36 2
    60   35   37 1
    61   36   60 1
    62   36   70 1
    63   37   61 1
    64   37   62 1
    65   39   40 1
    66   39   41 1
    67   39   63 1
    68   40   64 1
    69   40   65 1
    70   40   66 1
    71   41   67 1
    72   41   68 1
    73   41   69 1
@<TRIPOS>MOLECULE
CHEMBL380534
   71    74     0     0     0
SMALL
USER_CHARGES

@<TRIPOS>ATOM
      1 C1         -0.4371    0.0666   -1.6505 C.3       1 <0>        -0.1619
      2 C2          0.2070   -0.9097   -0.6642 C.3       1 <0>         0.1634
      3 C3          1.7293   -0.8456   -0.8038 C.3       1 <0>        -0.1663
      4 N1         -0.1738   -0.5453    0.7027 N.pl3     1 <0>        -0.6532
      5 C4         -0.8688   -1.4560    1.4997 C.ar      1 <0>         0.2198
      6 C5         -2.2629   -1.4886    1.4974 C.ar      1 <0>         0.0313
      7 C6         -2.9178   -2.4073    2.3025 C.ar      1 <0>         0.2987
      8 N2         -2.2355   -3.2466    3.0670 N.ar      1 <0>        -0.5378
      9 C7         -0.9115   -3.2449    3.0953 C.ar      1 <0>         0.3314
     10 C8         -0.1861   -2.3592    2.3133 C.ar      1 <0>         0.0508
     11 F1          1.1645   -2.3678    2.3431 F         1 <0>        -0.0915
     12 O1         -0.2565   -4.1249    3.8954 O.3       1 <0>        -0.1678
     13 C9         -0.9918   -4.8741    4.7534 C.ar      1 <0>         0.1130
     14 C10        -2.0860   -4.3165    5.4007 C.ar      1 <0>        -0.1464
     15 C11        -2.8357   -5.0743    6.2739 C.ar      1 <0>        -0.1005
     16 C12        -2.5014   -6.4089    6.5151 C.ar      1 <0>        -0.0774
     17 C13        -1.4098   -6.9797    5.8741 C.ar      1 <0>        -0.0528
     18 C14        -0.6510   -6.2163    4.9839 C.ar      1 <0>        -0.1213
     19 C15         0.5042   -6.8146    4.2954 C.2       1 <0>         0.5151
     20 O2          0.7986   -7.9845    4.4984 O.co2     1 <0>        -0.6796
     21 O3          1.1699   -6.1419    3.5201 O.co2     1 <0>        -0.6605
     22 C16        -3.3134   -7.2175    7.4576 C.ar      1 <0>        -0.0284
     23 C17        -2.9796   -8.5475    7.7050 C.ar      1 <0>        -0.1100
     24 C18        -3.7384   -9.2951    8.5827 C.ar      1 <0>        -0.1118
     25 C19        -4.8289   -8.7264    9.2158 C.ar      1 <0>        -0.1264
     26 C20        -5.1648   -7.4066    8.9739 C.ar      1 <0>        -0.1231
     27 C21        -4.4093   -6.6480    8.1030 C.ar      1 <0>        -0.1214
     28 O4         -4.2750   -2.4471    2.3080 O.3       1 <0>        -0.2173
     29 C22        -4.8813   -3.4404    3.0098 C.ar      1 <0>         0.1073
     30 C23        -4.1865   -4.6061    3.3044 C.ar      1 <0>        -0.0784
     31 C24        -4.7986   -5.6197    4.0175 C.ar      1 <0>        -0.0801
     32 C25        -6.1046   -5.4794    4.4417 C.ar      1 <0>        -0.0734
     33 C26        -6.8104   -4.3117    4.1508 C.ar      1 <0>        -0.1476
     34 C27        -6.1902   -3.2875    3.4358 C.ar      1 <0>        -0.0823
     35 C28        -8.2107   -4.1582    4.6041 C.cat     1 <0>         0.6100
     36 N3         -8.9899   -5.2300    4.7334 N.pl3     1 <0>        -0.7596
     37 N4         -8.6913   -2.9482    4.8828 N.pl3     1 <0>        -0.7616
     38 F2         -2.9660   -0.6355    0.7208 F         1 <0>        -0.1075
     39 C29         0.1749    0.7751    1.2330 C.3       1 <0>         0.1636
     40 C30        -1.1024    1.5227    1.6206 C.3       1 <0>        -0.1651
     41 C31         1.0639    0.6104    2.4673 C.3       1 <0>        -0.1700
     42 H1         -0.0948    1.0789   -1.4356 H         1 <0>         0.0585
     43 H2         -0.1538   -0.2045   -2.6675 H         1 <0>         0.0649
     44 H3         -1.5216    0.0210   -1.5510 H         1 <0>         0.0588
     45 H4         -0.1353   -1.9220   -0.8791 H         1 <0>         0.0787
     46 H5          2.0715    0.1667   -0.5888 H         1 <0>         0.0584
     47 H6          2.1881   -1.5412   -0.1011 H         1 <0>         0.0650
     48 H7          2.0126   -1.1168   -1.8208 H         1 <0>         0.0654
     49 H8         -2.3504   -3.2851    5.2196 H         1 <0>         0.1257
     50 H9         -3.6854   -4.6342    6.7745 H         1 <0>         0.1188
     51 H10        -1.1508   -8.0115    6.0602 H         1 <0>         0.1422
     52 H11        -2.1288   -8.9927    7.2107 H         1 <0>         0.1325
     53 H12        -3.4806  -10.3260    8.7751 H         1 <0>         0.1247
     54 H13        -5.4203   -9.3152    9.9013 H         1 <0>         0.1194
     55 H14        -6.0174   -6.9677    9.4707 H         1 <0>         0.1168
     56 H15        -4.6698   -5.6163    7.9182 H         1 <0>         0.1182
     57 H16        -3.1644   -4.7212    2.9749 H         1 <0>         0.1853
     58 H17        -4.2535   -6.5243    4.2431 H         1 <0>         0.1514
     59 H18        -6.5800   -6.2735    4.9983 H         1 <0>         0.1400
     60 H19        -6.7303   -2.3795    3.2115 H         1 <0>         0.1448
     61 H20        -8.6397   -6.1115    4.5304 H         1 <0>         0.4472
     62 H21        -8.1236   -2.1674    4.7887 H         1 <0>         0.4464
     63 H22        -9.6092   -2.8476    5.1800 H         1 <0>         0.4307
     64 H23         0.7112    1.3421    0.4721 H         1 <0>         0.0932
     65 H24        -1.6386    0.9556    2.3815 H         1 <0>         0.0492
     66 H25        -0.8429    2.5051    2.0151 H         1 <0>         0.0644
     67 H26        -1.7358    1.6400    0.7412 H         1 <0>         0.0626
     68 H27         1.9740    0.0778    2.1912 H         1 <0>         0.0671
     69 H28         1.3234    1.5928    2.8618 H         1 <0>         0.0649
     70 H29         0.5277    0.0434    3.2282 H         1 <0>         0.0506
     71 H30        -9.9077   -5.1294    5.0306 H         1 <0>         0.4310
@<TRIPOS>BOND
     1    1    2 1
     2    1   42 1
     3    1   43 1
     4    1   44 1
     5    2    3 1
     6    2    4 1
     7    2   45 1
     8    3   46 1
     9    3   47 1
    10    3   48 1
    11    4    5 1
    12    4   39 1
    13    5   10 ar
    14    5    6 ar
    15    6    7 ar
    16    6   38 1
    17    7    8 ar
    18    7   28 1
    19    8    9 ar
    20    9   10 ar
    21    9   12 1
    22   10   11 1
    23   12   13 1
    24   13   18 ar
    25   13   14 ar
    26   14   15 ar
    27   14   49 1
    28   15   16 ar
    29   15   50 1
    30   16   17 ar
    31   16   22 1
    32   17   18 ar
    33   17   51 1
    34   18   19 1
    35   19   20 2
    36   19   21 1
    37   22   27 ar
    38   22   23 ar
    39   23   24 ar
    40   23   52 1
    41   24   25 ar
    42   24   53 1
    43   25   26 ar
    44   25   54 1
    45   26   27 ar
    46   26   55 1
    47   27   56 1
    48   28   29 1
    49   29   34 ar
    50   29   30 ar
    51   30   31 ar
    52   30   57 1
    53   31   32 ar
    54   31   58 1
    55   32   33 ar
    56   32   59 1
    57   33   34 ar
    58   33   35 1
    59   34   60 1
    60   35   36 2
    61   35   37 1
    62   36   61 1
    63   36   71 1
    64   37   62 1
    65   37   63 1
    66   39   40 1
    67   39   41 1
    68   39   64 1
    69   40   65 1
    70   40   66 1
    71   40   67 1
    72   41   68 1
    73   41   69 1
    74   41   70 1
@<TRIPOS>MOLECULE
CHEMBL204653
   74    77     0     0     0
SMALL
USER_CHARGES

@<TRIPOS>ATOM
      1 C1          1.2614    0.9746    0.2767 C.3       1 <0>        -0.1620
      2 C2          0.2340   -0.1526    0.3982 C.3       1 <0>         0.1635
      3 C3         -0.4021   -0.1151    1.7892 C.3       1 <0>        -0.1663
      4 N1         -0.8056    0.0226   -0.6190 N.pl3     1 <0>        -0.6532
      5 C4         -1.0222   -0.9719   -1.5737 C.ar      1 <0>         0.2195
      6 C5         -0.3314   -0.9617   -2.7850 C.ar      1 <0>         0.0316
      7 C6         -0.5736   -1.9666   -3.7085 C.ar      1 <0>         0.2976
      8 N2         -1.4485   -2.9272   -3.4514 N.ar      1 <0>        -0.5349
      9 C7         -2.1230   -2.9696   -2.3125 C.ar      1 <0>         0.3280
     10 C8         -1.9304   -2.0031   -1.3374 C.ar      1 <0>         0.0499
     11 F1         -2.6177   -2.0567   -0.1755 F         1 <0>        -0.0918
     12 O1         -3.0095   -3.9747   -2.0948 O.3       1 <0>        -0.1654
     13 C9         -3.3478   -4.7635   -3.1445 C.ar      1 <0>         0.1081
     14 C10        -3.3608   -4.2443   -4.4310 C.ar      1 <0>        -0.1544
     15 C11        -3.7050   -5.0486   -5.4986 C.ar      1 <0>        -0.1039
     16 C12        -4.0403   -6.3783   -5.2964 C.ar      1 <0>        -0.1069
     17 C13        -4.0332   -6.9119   -4.0269 C.ar      1 <0>        -0.0565
     18 C14        -3.6809   -6.1106   -2.9357 C.ar      1 <0>        -0.1215
     19 C15        -3.6656   -6.6751   -1.5768 C.2       1 <0>         0.5149
     20 O2         -3.9567   -7.8500   -1.3991 O.co2     1 <0>        -0.6813
     21 O3         -3.3618   -5.9694   -0.6247 O.co2     1 <0>        -0.6625
     22 C16        -4.4149   -7.2441   -6.4716 C.3       1 <0>        -0.0410
     23 C17        -3.1772   -7.9011   -7.0262 C.ar      1 <0>        -0.0637
     24 C18        -2.4433   -7.2705   -8.0134 C.ar      1 <0>        -0.1204
     25 C19        -1.3080   -7.8731   -8.5222 C.ar      1 <0>        -0.1434
     26 C20        -0.9064   -9.1061   -8.0435 C.ar      1 <0>        -0.1215
     27 C21        -1.6398   -9.7364   -7.0557 C.ar      1 <0>        -0.1108
     28 C22        -2.7727   -9.1318   -6.5438 C.ar      1 <0>        -0.0997
     29 O4          0.0937   -1.9660   -4.8910 O.3       1 <0>        -0.2173
     30 C23        -0.0788   -3.0278   -5.7215 C.ar      1 <0>         0.1051
     31 C24        -0.5259   -4.2406   -5.2138 C.ar      1 <0>        -0.0792
     32 C25        -0.7030   -5.3237   -6.0541 C.ar      1 <0>        -0.0749
     33 C26        -0.4365   -5.2067   -7.4034 C.ar      1 <0>        -0.0901
     34 C27         0.0126   -3.9921   -7.9224 C.ar      1 <0>        -0.1505
     35 C28         0.1860   -2.8984   -7.0746 C.ar      1 <0>        -0.0826
     36 C29         0.2998   -3.8635   -9.3684 C.cat     1 <0>         0.6102
     37 N3          0.7151   -4.9218  -10.0613 N.pl3     1 <0>        -0.7621
     38 N4          0.1429   -2.6894   -9.9764 N.pl3     1 <0>        -0.7608
     39 F2          0.5619    0.0151   -3.0551 F         1 <0>        -0.1075
     40 C30        -1.6178    1.2417   -0.6340 C.3       1 <0>         0.1635
     41 C31        -1.4289    1.9640   -1.9695 C.3       1 <0>        -0.1651
     42 C32        -3.0925    0.8743   -0.4570 C.3       1 <0>        -0.1700
     43 H1          2.0349    0.8443    1.0336 H         1 <0>         0.0649
     44 H2          1.7146    0.9479   -0.7142 H         1 <0>         0.0588
     45 H3          0.7668    1.9346    0.4243 H         1 <0>         0.0586
     46 H4          0.7287   -1.1126    0.2507 H         1 <0>         0.0785
     47 H5         -0.8968    0.8449    1.9368 H         1 <0>         0.0586
     48 H6         -1.1341   -0.9181    1.8758 H         1 <0>         0.0649
     49 H7          0.3714   -0.2454    2.5461 H         1 <0>         0.0654
     50 H8         -3.1016   -3.2091   -4.5974 H         1 <0>         0.1275
     51 H9         -3.7135   -4.6392   -6.4980 H         1 <0>         0.1127
     52 H10        -4.2955   -7.9484   -3.8744 H         1 <0>         0.1370
     53 H11        -5.1192   -8.0106   -6.1482 H         1 <0>         0.0863
     54 H12        -4.8767   -6.6288   -7.2437 H         1 <0>         0.0791
     55 H13        -2.7570   -6.3071   -8.3874 H         1 <0>         0.1168
     56 H14        -0.7350   -7.3807   -9.2940 H         1 <0>         0.1069
     57 H15        -0.0198   -9.5773   -8.4415 H         1 <0>         0.1209
     58 H16        -1.3262  -10.6999   -6.6819 H         1 <0>         0.1258
     59 H17        -3.3436   -9.6225   -5.7695 H         1 <0>         0.1298
     60 H18        -0.7356   -4.3379   -4.1589 H         1 <0>         0.1866
     61 H19        -1.0507   -6.2646   -5.6537 H         1 <0>         0.1487
     62 H20        -0.5753   -6.0552   -8.0570 H         1 <0>         0.1522
     63 H21         0.5299   -1.9547   -7.4714 H         1 <0>         0.1440
     64 H22         0.8295   -5.7771   -9.6184 H         1 <0>         0.4451
     65 H23        -0.1597   -1.9184   -9.4715 H         1 <0>         0.4466
     66 H24         0.3311   -2.6051  -10.9242 H         1 <0>         0.4307
     67 H25        -1.3061    1.8960    0.1802 H         1 <0>         0.0932
     68 H26        -1.7406    1.3098   -2.7837 H         1 <0>         0.0492
     69 H27        -2.0332    2.8711   -1.9806 H         1 <0>         0.0644
     70 H28        -0.3784    2.2258   -2.0956 H         1 <0>         0.0626
     71 H29        -3.2270    0.3598    0.4945 H         1 <0>         0.0671
     72 H30        -3.6968    1.7814   -0.4681 H         1 <0>         0.0650
     73 H31        -3.4042    0.2201   -1.2712 H         1 <0>         0.0507
     74 H32         0.9034   -4.8374  -11.0091 H         1 <0>         0.4313
@<TRIPOS>BOND
     1    1    2 1
     2    1   43 1
     3    1   44 1
     4    1   45 1
     5    2    3 1
     6    2    4 1
     7    2   46 1
     8    3   47 1
     9    3   48 1
    10    3   49 1
    11    4    5 1
    12    4   40 1
    13    5   10 ar
    14    5    6 ar
    15    6    7 ar
    16    6   39 1
    17    7    8 ar
    18    7   29 1
    19    8    9 ar
    20    9   10 ar
    21    9   12 1
    22   10   11 1
    23   12   13 1
    24   13   18 ar
    25   13   14 ar
    26   14   15 ar
    27   14   50 1
    28   15   16 ar
    29   15   51 1
    30   16   17 ar
    31   16   22 1
    32   17   18 ar
    33   17   52 1
    34   18   19 1
    35   19   20 2
    36   19   21 1
    37   22   23 1
    38   22   53 1
    39   22   54 1
    40   23   28 ar
    41   23   24 ar
    42   24   25 ar
    43   24   55 1
    44   25   26 ar
    45   25   56 1
    46   26   27 ar
    47   26   57 1
    48   27   28 ar
    49   27   58 1
    50   28   59 1
    51   29   30 1
    52   30   35 ar
    53   30   31 ar
    54   31   32 ar
    55   31   60 1
    56   32   33 ar
    57   32   61 1
    58   33   34 ar
    59   33   62 1
    60   34   35 ar
    61   34   36 1
    62   35   63 1
    63   36   37 2
    64   36   38 1
    65   37   64 1
    66   37   74 1
    67   38   65 1
    68   38   66 1
    69   40   41 1
    70   40   42 1
    71   40   67 1
    72   41   68 1
    73   41   69 1
    74   41   70 1
    75   42   71 1
    76   42   72 1
    77   42   73 1
@<TRIPOS>MOLECULE
CHEMBL180857
   71    74     0     0     0
SMALL
USER_CHARGES

@<TRIPOS>ATOM
      1 C1         -0.0187    1.5258    0.0104 C.3       1 <0>        -0.1548
      2 C2          0.0021   -0.0041    0.0020 C.3       1 <0>         0.0532
      3 O1          0.6709   -0.4649   -1.1737 O.3       1 <0>        -0.2971
      4 C3          0.7768   -1.8109   -1.3363 C.ar      1 <0>         0.1161
      5 C4          0.2435   -2.6690   -0.3879 C.ar      1 <0>        -0.1600
      6 C5          0.3516   -4.0370   -0.5549 C.ar      1 <0>        -0.1110
      7 C6          0.9916   -4.5523   -1.6668 C.ar      1 <0>        -0.0988
      8 C7          1.5263   -3.7019   -2.6164 C.ar      1 <0>        -0.1679
      9 C8          1.4160   -2.3297   -2.4582 C.ar      1 <0>         0.1222
     10 O2          1.9361   -1.4917   -3.3945 O.3       1 <0>        -0.2915
     11 C9          2.5780   -2.0947   -4.5199 C.3       1 <0>         0.1009
     12 C10         3.0884   -1.0186   -5.4433 C.ar      1 <0>        -0.1024
     13 C11         2.2781   -0.5319   -6.4520 C.ar      1 <0>        -0.0940
     14 C12         2.7463    0.4551   -7.2990 C.ar      1 <0>        -0.1222
     15 C13         4.0245    0.9558   -7.1370 C.ar      1 <0>        -0.1052
     16 C14         4.8345    0.4698   -6.1277 C.ar      1 <0>        -0.1220
     17 C15         4.3648   -0.5143   -5.2780 C.ar      1 <0>        -0.0938
     18 C16        -0.2290   -4.9686    0.4775 C.3       1 <0>         0.1761
     19 C17         0.8696   -5.4618    1.3836 C.2       1 <0>         0.4998
     20 O3          1.1040   -6.6492    1.4617 O.2       1 <0>        -0.5203
     21 N1          1.5916   -4.5833    2.1071 N.am      1 <0>        -0.7158
     22 C18         2.6595   -5.0627    2.9879 C.3       1 <0>         0.1635
     23 C19         3.3066   -3.8893    3.6775 C.ar      1 <0>        -0.1179
     24 C20         4.3844   -3.2519    3.0919 C.ar      1 <0>        -0.0984
     25 C21         4.9780   -2.1755    3.7244 C.ar      1 <0>        -0.1186
     26 C22         4.4935   -1.7363    4.9422 C.ar      1 <0>        -0.1062
     27 C23         3.4151   -2.3732    5.5274 C.ar      1 <0>        -0.1207
     28 C24         2.8189   -3.4469    4.8929 C.ar      1 <0>        -0.1015
     29 N2         -0.8581   -6.1093   -0.1928 N.pl3     1 <0>        -0.6881
     30 C25        -1.8780   -6.8122    0.4403 C.ar      1 <0>         0.2982
     31 C26        -2.3037   -6.4270    1.7083 C.ar      1 <0>        -0.1991
     32 C27        -3.3130   -7.1204    2.3370 C.ar      1 <0>        -0.0003
     33 C28        -3.9103   -8.2118    1.7011 C.ar      1 <0>        -0.2303
     34 C29        -3.4808   -8.5961    0.4283 C.ar      1 <0>        -0.0023
     35 C30        -2.4747   -7.8958   -0.1977 C.ar      1 <0>        -0.1907
     36 C31        -4.9930   -8.9579    2.3732 C.cat     1 <0>         0.6038
     37 N3         -5.5618   -9.9988    1.7655 N.pl3     1 <0>        -0.7727
     38 N4         -5.4013   -8.5905    3.5875 N.pl3     1 <0>        -0.7734
     39 H1          1.0039    1.9031    0.0027 H         1 <0>         0.0691
     40 H2         -0.5459    1.8868   -0.8726 H         1 <0>         0.0688
     41 H3         -0.5289    1.8773    0.9072 H         1 <0>         0.0809
     42 H4          0.5293   -0.3651    0.8851 H         1 <0>         0.0619
     43 H5         -1.0205   -0.3814    0.0098 H         1 <0>         0.0618
     44 H6         -0.2563   -2.2690    0.4819 H         1 <0>         0.1389
     45 H7          1.0743   -5.6217   -1.7935 H         1 <0>         0.1267
     46 H8          2.0261   -4.1070   -3.4839 H         1 <0>         0.1424
     47 H9          3.4131   -2.7058   -4.1775 H         1 <0>         0.0733
     48 H10         1.8634   -2.7219   -5.0528 H         1 <0>         0.0732
     49 H11         1.2794   -0.9231   -6.5785 H         1 <0>         0.1234
     50 H12         2.1135    0.8349   -8.0875 H         1 <0>         0.1270
     51 H13         4.3905    1.7265   -7.7992 H         1 <0>         0.1267
     52 H14         5.8333    0.8607   -6.0014 H         1 <0>         0.1272
     53 H15         4.9962   -0.8914   -4.4872 H         1 <0>         0.1236
     54 H16        -0.9756   -4.4371    1.0677 H         1 <0>         0.1197
     55 H17         1.4041   -3.6337    2.0446 H         1 <0>         0.4030
     56 H18         2.2396   -5.7366    3.7347 H         1 <0>         0.0790
     57 H19         3.4061   -5.5942    2.3978 H         1 <0>         0.0793
     58 H20         4.7629   -3.5950    2.1403 H         1 <0>         0.1233
     59 H21         5.8205   -1.6779    3.2672 H         1 <0>         0.1267
     60 H22         4.9577   -0.8959    5.4367 H         1 <0>         0.1264
     61 H23         3.0368   -2.0303    6.4791 H         1 <0>         0.1261
     62 H24         1.9740   -3.9421    5.3483 H         1 <0>         0.1224
     63 H25        -0.5634   -6.3745   -1.0781 H         1 <0>         0.4168
     64 H26        -1.8415   -5.5836    2.1995 H         1 <0>         0.1376
     65 H27        -3.6427   -6.8213    3.3210 H         1 <0>         0.1343
     66 H28        -3.9404   -9.4396   -0.0654 H         1 <0>         0.1359
     67 H29        -2.1454   -8.1897   -1.1834 H         1 <0>         0.1454
     68 H30        -5.2646  -10.2662    0.8818 H         1 <0>         0.4416
     69 H31        -4.9873   -7.8329    4.0298 H         1 <0>         0.4411
     70 H32        -6.1125   -9.0806    4.0290 H         1 <0>         0.4298
     71 H33        -6.2730  -10.4889    2.2070 H         1 <0>         0.4298
@<TRIPOS>BOND
     1    1    2 1
     2    1   39 1
     3    1   40 1
     4    1   41 1
     5    2    3 1
     6    2   42 1
     7    2   43 1
     8    3    4 1
     9    4    9 ar
    10    4    5 ar
    11    5    6 ar
    12    5   44 1
    13    6    7 ar
    14    6   18 1
    15    7    8 ar
    16    7   45 1
    17    8    9 ar
    18    8   46 1
    19    9   10 1
    20   10   11 1
    21   11   12 1
    22   11   47 1
    23   11   48 1
    24   12   17 ar
    25   12   13 ar
    26   13   14 ar
    27   13   49 1
    28   14   15 ar
    29   14   50 1
    30   15   16 ar
    31   15   51 1
    32   16   17 ar
    33   16   52 1
    34   17   53 1
    35   18   19 1
    36   18   29 1
    37   18   54 1
    38   19   20 2
    39   19   21 am
    40   21   22 1
    41   21   55 1
    42   22   23 1
    43   22   56 1
    44   22   57 1
    45   23   28 ar
    46   23   24 ar
    47   24   25 ar
    48   24   58 1
    49   25   26 ar
    50   25   59 1
    51   26   27 ar
    52   26   60 1
    53   27   28 ar
    54   27   61 1
    55   28   62 1
    56   29   30 1
    57   29   63 1
    58   30   35 ar
    59   30   31 ar
    60   31   32 ar
    61   31   64 1
    62   32   33 ar
    63   32   65 1
    64   33   34 ar
    65   33   36 1
    66   34   35 ar
    67   34   66 1
    68   35   67 1
    69   36   37 2
    70   36   38 1
    71   37   68 1
    72   37   71 1
    73   38   69 1
    74   38   70 1
@<TRIPOS>MOLECULE
CHEMBL180857__1
   71    74     0     0     0
SMALL
USER_CHARGES

@<TRIPOS>ATOM
      1 C1         -0.0187    1.5258    0.0104 C.3       1 <0>        -0.1548
      2 C2          0.0021   -0.0041    0.0020 C.3       1 <0>         0.0533
      3 O1          0.6709   -0.4649   -1.1737 O.3       1 <0>        -0.2971
      4 C3          0.7768   -1.8109   -1.3363 C.ar      1 <0>         0.1161
      5 C4          0.2435   -2.6690   -0.3879 C.ar      1 <0>        -0.1600
      6 C5          0.3516   -4.0370   -0.5549 C.ar      1 <0>        -0.1110
      7 C6          0.9916   -4.5523   -1.6668 C.ar      1 <0>        -0.0987
      8 C7          1.5263   -3.7019   -2.6164 C.ar      1 <0>        -0.1679
      9 C8          1.4160   -2.3297   -2.4582 C.ar      1 <0>         0.1222
     10 O2          1.9361   -1.4917   -3.3945 O.3       1 <0>        -0.2915
     11 C9          2.5780   -2.0947   -4.5199 C.3       1 <0>         0.1009
     12 C10         3.0884   -1.0186   -5.4433 C.ar      1 <0>        -0.1024
     13 C11         2.2781   -0.5319   -6.4520 C.ar      1 <0>        -0.0937
     14 C12         2.7463    0.4551   -7.2990 C.ar      1 <0>        -0.1219
     15 C13         4.0245    0.9558   -7.1370 C.ar      1 <0>        -0.1052
     16 C14         4.8345    0.4698   -6.1277 C.ar      1 <0>        -0.1223
     17 C15         4.3648   -0.5143   -5.2780 C.ar      1 <0>        -0.0941
     18 C16        -0.2290   -4.9686    0.4775 C.3       1 <0>         0.1761
     19 C17        -1.5608   -5.4844   -0.0036 C.2       1 <0>         0.4997
     20 O3         -1.7305   -6.6756   -0.1562 O.2       1 <0>        -0.5203
     21 N1         -2.5631   -4.6221   -0.2644 N.am      1 <0>        -0.7158
     22 C18        -3.8577   -5.1235   -0.7321 C.3       1 <0>         0.1635
     23 C19        -4.7969   -3.9649   -0.9480 C.ar      1 <0>        -0.1179
     24 C20        -5.5975   -3.5218    0.0881 C.ar      1 <0>        -0.1015
     25 C21        -6.4590   -2.4590   -0.1100 C.ar      1 <0>        -0.1207
     26 C22        -6.5196   -1.8391   -1.3440 C.ar      1 <0>        -0.1062
     27 C23        -5.7183   -2.2816   -2.3799 C.ar      1 <0>        -0.1186
     28 C24        -4.8537   -3.3416   -2.1806 C.ar      1 <0>        -0.0984
     29 N2          0.6840   -6.0950    0.6874 N.pl3     1 <0>        -0.6881
     30 C25         0.6673   -6.7885    1.8932 C.ar      1 <0>         0.2980
     31 C26        -0.2214   -6.4148    2.8972 C.ar      1 <0>        -0.1988
     32 C27        -0.2405   -7.0995    4.0911 C.ar      1 <0>        -0.0004
     33 C28         0.6334   -8.1705    4.2947 C.ar      1 <0>        -0.2301
     34 C29         1.5244   -8.5434    3.2851 C.ar      1 <0>        -0.0024
     35 C30         1.5353   -7.8584    2.0912 C.ar      1 <0>        -0.1906
     36 C31         0.6157   -8.9068    5.5747 C.cat     1 <0>         0.6038
     37 N3          1.4498   -9.9282    5.7676 N.pl3     1 <0>        -0.7727
     38 N4         -0.2344   -8.5498    6.5371 N.pl3     1 <0>        -0.7734
     39 H1          1.0039    1.9031    0.0027 H         1 <0>         0.0688
     40 H2         -0.5459    1.8868   -0.8726 H         1 <0>         0.0691
     41 H3         -0.5289    1.8773    0.9072 H         1 <0>         0.0809
     42 H4          0.5293   -0.3651    0.8851 H         1 <0>         0.0619
     43 H5         -1.0205   -0.3814    0.0098 H         1 <0>         0.0619
     44 H6         -0.2563   -2.2690    0.4819 H         1 <0>         0.1389
     45 H7          1.0743   -5.6217   -1.7935 H         1 <0>         0.1267
     46 H8          2.0261   -4.1070   -3.4839 H         1 <0>         0.1424
     47 H9          3.4131   -2.7058   -4.1775 H         1 <0>         0.0731
     48 H10         1.8634   -2.7219   -5.0528 H         1 <0>         0.0733
     49 H11         1.2794   -0.9231   -6.5785 H         1 <0>         0.1236
     50 H12         2.1135    0.8349   -8.0875 H         1 <0>         0.1272
     51 H13         4.3905    1.7265   -7.7992 H         1 <0>         0.1267
     52 H14         5.8333    0.8607   -6.0014 H         1 <0>         0.1270
     53 H15         4.9962   -0.8914   -4.4872 H         1 <0>         0.1234
     54 H16        -0.3651   -4.4314    1.4162 H         1 <0>         0.1197
     55 H17        -2.4274   -3.6694   -0.1424 H         1 <0>         0.4030
     56 H18        -3.7217   -5.6607   -1.6707 H         1 <0>         0.0793
     57 H19        -4.2777   -5.7973    0.0146 H         1 <0>         0.0790
     58 H20        -5.5502   -4.0061    1.0522 H         1 <0>         0.1224
     59 H21        -7.0851   -2.1133    0.6993 H         1 <0>         0.1261
     60 H22        -7.1932   -1.0092   -1.4989 H         1 <0>         0.1264
     61 H23        -5.7659   -1.7974   -3.3441 H         1 <0>         0.1267
     62 H24        -4.2250   -3.6850   -2.9888 H         1 <0>         0.1233
     63 H25         1.3001   -6.3571   -0.0144 H         1 <0>         0.4168
     64 H26        -0.8964   -5.5866    2.7394 H         1 <0>         0.1375
     65 H27        -0.9300   -6.8089    4.8699 H         1 <0>         0.1343
     66 H28         2.2012   -9.3706    3.4398 H         1 <0>         0.1359
     67 H29         2.2207   -8.1490    1.3088 H         1 <0>         0.1454
     68 H30         2.0685  -10.1880    5.0672 H         1 <0>         0.4416
     69 H31        -0.8415   -7.8064    6.3967 H         1 <0>         0.4411
     70 H32        -0.2461   -9.0334    7.3779 H         1 <0>         0.4298
     71 H33         1.4381  -10.4118    6.6083 H         1 <0>         0.4298
@<TRIPOS>BOND
     1    1    2 1
     2    1   39 1
     3    1   40 1
     4    1   41 1
     5    2    3 1
     6    2   42 1
     7    2   43 1
     8    3    4 1
     9    4    9 ar
    10    4    5 ar
    11    5    6 ar
    12    5   44 1
    13    6    7 ar
    14    6   18 1
    15    7    8 ar
    16    7   45 1
    17    8    9 ar
    18    8   46 1
    19    9   10 1
    20   10   11 1
    21   11   12 1
    22   11   47 1
    23   11   48 1
    24   12   17 ar
    25   12   13 ar
    26   13   14 ar
    27   13   49 1
    28   14   15 ar
    29   14   50 1
    30   15   16 ar
    31   15   51 1
    32   16   17 ar
    33   16   52 1
    34   17   53 1
    35   18   19 1
    36   18   29 1
    37   18   54 1
    38   19   20 2
    39   19   21 am
    40   21   22 1
    41   21   55 1
    42   22   23 1
    43   22   56 1
    44   22   57 1
    45   23   28 ar
    46   23   24 ar
    47   24   25 ar
    48   24   58 1
    49   25   26 ar
    50   25   59 1
    51   26   27 ar
    52   26   60 1
    53   27   28 ar
    54   27   61 1
    55   28   62 1
    56   29   30 1
    57   29   63 1
    58   30   35 ar
    59   30   31 ar
    60   31   32 ar
    61   31   64 1
    62   32   33 ar
    63   32   65 1
    64   33   34 ar
    65   33   36 1
    66   34   35 ar
    67   34   66 1
    68   35   67 1
    69   36   37 2
    70   36   38 1
    71   37   68 1
    72   37   71 1
    73   38   69 1
    74   38   70 1
@<TRIPOS>MOLECULE
CHEMBL204602
   69    72     0     0     0
SMALL
USER_CHARGES

@<TRIPOS>ATOM
      1 C1         -2.6806    2.8057   -0.7188 C.3       1 <0>        -0.1619
      2 C2         -1.8379    1.5356   -0.8508 C.3       1 <0>         0.1646
      3 C3         -0.5480    1.6931   -0.0432 C.3       1 <0>        -0.1677
      4 N1         -2.5967    0.3908   -0.3409 N.pl3     1 <0>        -0.6534
      5 C4         -2.8078   -0.7241   -1.1532 C.ar      1 <0>         0.2197
      6 C5         -3.9265   -0.8023   -1.9820 C.ar      1 <0>         0.0356
      7 C6         -4.1020   -1.9260   -2.7745 C.ar      1 <0>         0.2947
      8 N2         -3.2233   -2.9167   -2.7502 N.ar      1 <0>        -0.5351
      9 C7         -2.1495   -2.8776   -1.9761 C.ar      1 <0>         0.3229
     10 C8         -1.9024   -1.7843   -1.1602 C.ar      1 <0>         0.0547
     11 F1         -0.8014   -1.7491   -0.3779 F         1 <0>        -0.0889
     12 O1         -1.2774   -3.9182   -1.9856 O.3       1 <0>        -0.1593
     13 C9         -1.4766   -4.9070   -2.8907 C.ar      1 <0>         0.1359
     14 C10        -2.1738   -4.6462   -4.0631 C.ar      1 <0>        -0.1890
     15 C11        -2.3781   -5.6480   -4.9859 C.ar      1 <0>        -0.0617
     16 C12        -1.8860   -6.9347   -4.7505 C.ar      1 <0>        -0.0912
     17 C13        -1.1867   -7.2097   -3.5818 C.ar      1 <0>        -0.0076
     18 C14        -0.9732   -6.1952   -2.6468 C.ar      1 <0>        -0.1384
     19 C15        -0.2284   -6.4757   -1.4086 C.2       1 <0>         0.5171
     20 O2          0.2089   -7.5988   -1.1989 O.co2     1 <0>        -0.6767
     21 O3         -0.0466   -5.5857   -0.5891 O.co2     1 <0>        -0.6616
     22 C16        -2.1107   -8.0074   -5.7486 C.ar      1 <0>         0.3771
     23 N3         -1.6419   -9.2246   -5.5078 N.ar      1 <0>        -0.5042
     24 C17        -1.8255  -10.2034   -6.3770 C.ar      1 <0>         0.1601
     25 C18        -2.5173   -9.9451   -7.5510 C.ar      1 <0>        -0.2441
     26 C19        -2.9939   -8.6614   -7.7712 C.ar      1 <0>         0.1431
     27 N4         -2.7805   -7.7288   -6.8590 N.ar      1 <0>        -0.5237
     28 O4         -5.1878   -2.0122   -3.5851 O.3       1 <0>        -0.2158
     29 C20        -5.4044   -3.1836   -4.2390 C.ar      1 <0>         0.1025
     30 C21        -4.8271   -4.3567   -3.7712 C.ar      1 <0>        -0.0817
     31 C22        -5.0442   -5.5509   -4.4326 C.ar      1 <0>        -0.0785
     32 C23        -5.8367   -5.5850   -5.5622 C.ar      1 <0>        -0.0695
     33 C24        -6.4212   -4.4115   -6.0392 C.ar      1 <0>        -0.1471
     34 C25        -6.2055   -3.2080   -5.3685 C.ar      1 <0>        -0.0809
     35 C26        -7.2710   -4.4445   -7.2503 C.cat     1 <0>         0.6099
     36 N5         -7.0383   -5.3456   -8.2025 N.pl3     1 <0>        -0.7594
     37 N6         -8.2682   -3.5731   -7.3878 N.pl3     1 <0>        -0.7624
     38 F2         -4.8278    0.2036   -2.0118 F         1 <0>        -0.1065
     39 C27        -3.1338    0.4165    1.0219 C.3       1 <0>         0.1631
     40 C28        -4.6628    0.4010    0.9677 C.3       1 <0>        -0.1664
     41 C29        -2.6381   -0.8111    1.7887 C.3       1 <0>        -0.1706
     42 H1         -2.0863    3.6689   -1.0185 H         1 <0>         0.0651
     43 H2         -3.5580    2.7280   -1.3608 H         1 <0>         0.0584
     44 H3         -2.9979    2.9251    0.3172 H         1 <0>         0.0607
     45 H4         -1.5919    1.3702   -1.8998 H         1 <0>         0.0766
     46 H5         -0.7902    1.7714    1.0167 H         1 <0>         0.0603
     47 H6          0.0912    0.8255   -0.2067 H         1 <0>         0.0630
     48 H7         -0.0261    2.5946   -0.3642 H         1 <0>         0.0643
     49 H8         -2.5574   -3.6544   -4.2517 H         1 <0>         0.1545
     50 H9         -2.9215   -5.4384   -5.8954 H         1 <0>         0.1307
     51 H10        -0.8061   -8.2038   -3.3992 H         1 <0>         0.1544
     52 H11        -1.4411  -11.1924   -6.1756 H         1 <0>         0.1708
     53 H12        -2.6810  -10.7266   -8.2782 H         1 <0>         0.1459
     54 H13        -3.5361   -8.4275   -8.6755 H         1 <0>         0.1637
     55 H14        -4.2061   -4.3359   -2.8878 H         1 <0>         0.1883
     56 H15        -4.5920   -6.4601   -4.0646 H         1 <0>         0.1498
     57 H16        -6.0039   -6.5197   -6.0767 H         1 <0>         0.1379
     58 H17        -6.6585   -2.2971   -5.7310 H         1 <0>         0.1452
     59 H18        -7.5953   -5.3673   -8.9963 H         1 <0>         0.4306
     60 H19        -8.4377   -2.9166   -6.6941 H         1 <0>         0.4463
     61 H20        -8.8252   -3.5948   -8.1816 H         1 <0>         0.4304
     62 H21        -2.7974    1.3213    1.5280 H         1 <0>         0.0932
     63 H22        -5.0632    0.5110    1.9756 H         1 <0>         0.0645
     64 H23        -5.0128    1.2249    0.3458 H         1 <0>         0.0625
     65 H24        -5.0017   -0.5441    0.5433 H         1 <0>         0.0502
     66 H25        -1.5550   -0.7577    1.8990 H         1 <0>         0.0673
     67 H26        -3.1030   -0.8360    2.7743 H         1 <0>         0.0669
     68 H27        -2.9032   -1.7143    1.2390 H         1 <0>         0.0526
     69 H28        -6.3118   -5.9805   -8.1023 H         1 <0>         0.4479
@<TRIPOS>BOND
     1    1    2 1
     2    1   42 1
     3    1   43 1
     4    1   44 1
     5    2    3 1
     6    2    4 1
     7    2   45 1
     8    3   46 1
     9    3   47 1
    10    3   48 1
    11    4    5 1
    12    4   39 1
    13    5   10 ar
    14    5    6 ar
    15    6    7 ar
    16    6   38 1
    17    7    8 ar
    18    7   28 1
    19    8    9 ar
    20    9   10 ar
    21    9   12 1
    22   10   11 1
    23   12   13 1
    24   13   18 ar
    25   13   14 ar
    26   14   15 ar
    27   14   49 1
    28   15   16 ar
    29   15   50 1
    30   16   17 ar
    31   16   22 1
    32   17   18 ar
    33   17   51 1
    34   18   19 1
    35   19   20 2
    36   19   21 1
    37   22   27 ar
    38   22   23 ar
    39   23   24 ar
    40   24   25 ar
    41   24   52 1
    42   25   26 ar
    43   25   53 1
    44   26   27 ar
    45   26   54 1
    46   28   29 1
    47   29   34 ar
    48   29   30 ar
    49   30   31 ar
    50   30   55 1
    51   31   32 ar
    52   31   56 1
    53   32   33 ar
    54   32   57 1
    55   33   34 ar
    56   33   35 1
    57   34   58 1
    58   35   36 2
    59   35   37 1
    60   36   59 1
    61   36   69 1
    62   37   60 1
    63   37   61 1
    64   39   40 1
    65   39   41 1
    66   39   62 1
    67   40   63 1
    68   40   64 1
    69   40   65 1
    70   41   66 1
    71   41   67 1
    72   41   68 1
@<TRIPOS>MOLECULE
CHEMBL126012
   53    55     0     0     0
SMALL
USER_CHARGES

@<TRIPOS>ATOM
      1 C1         -0.0169    1.5479   -0.0087 C.3       1 <0>        -0.1600
      2 C2          0.0043    0.0180   -0.0047 C.3       1 <0>         0.1855
      3 H1          0.5324   -0.3357    0.8807 H         1 <0>         0.1001
      4 C3         -1.4093   -0.5039    0.0115 C.ar      1 <0>        -0.0970
      5 C4         -2.1368   -0.5526   -1.1764 C.ar      1 <0>        -0.1163
      6 C5         -3.4155   -1.0180   -1.1964 C.ar      1 <0>        -0.0951
      7 C6         -4.0144   -1.4572   -0.0033 C.ar      1 <0>        -0.0511
      8 C7         -5.3324   -1.9446    0.0155 C.ar      1 <0>        -0.1074
      9 C8         -5.8794   -2.3617    1.1898 C.ar      1 <0>        -0.1114
     10 C9         -5.1519   -2.3133    2.3775 C.ar      1 <0>        -0.1115
     11 C10        -3.8733   -1.8475    2.3976 C.ar      1 <0>        -0.1069
     12 C11        -3.2746   -1.4080    1.2045 C.ar      1 <0>        -0.0490
     13 C12        -1.9546   -0.9258    1.1848 C.ar      1 <0>        -0.0875
     14 N1          0.6891   -0.4640   -1.2068 N.am      1 <0>        -0.7156
     15 C13         2.0323   -0.5741   -1.2188 C.2       1 <0>         0.5114
     16 O1          2.6741   -0.2742   -0.2344 O.2       1 <0>        -0.5340
     17 C14         2.7367   -1.0699   -2.4553 C.3       1 <0>         0.1157
     18 N2          4.1817   -1.0985   -2.2158 N.am      1 <0>        -0.7197
     19 C15         5.0180   -1.5110   -3.1889 C.2       1 <0>         0.7103
     20 O2          4.5732   -1.8593   -4.2655 O.2       1 <0>        -0.5657
     21 N3          6.3474   -1.5373   -2.9686 N.am      1 <0>        -0.6838
     22 C16         7.2051   -2.0539   -3.9396 C.ar      1 <0>         0.2467
     23 C17         6.9213   -1.8642   -5.2882 C.ar      1 <0>        -0.1244
     24 C18         7.7659   -2.3733   -6.2492 C.ar      1 <0>        -0.0327
     25 C19         8.9089   -3.0804   -5.8687 C.ar      1 <0>        -0.1855
     26 C20         9.1913   -3.2688   -4.5137 C.ar      1 <0>        -0.0306
     27 C21         8.3456   -2.7527   -3.5575 C.ar      1 <0>        -0.1495
     28 C22         9.8168   -3.6284   -6.8972 C.cat     1 <0>         0.6034
     29 N4         10.9068   -4.3027   -6.5327 N.pl3     1 <0>        -0.7664
     30 N5          9.5459   -3.4483   -8.1894 N.pl3     1 <0>        -0.7653
     31 H2          1.0055    1.9254   -0.0205 H         1 <0>         0.0655
     32 H3         -0.5450    1.9016   -0.8942 H         1 <0>         0.0618
     33 H4         -0.5264    1.9065    0.8856 H         1 <0>         0.0726
     34 H5         -1.6789   -0.2158   -2.0947 H         1 <0>         0.1207
     35 H6         -3.9673   -1.0492   -2.1243 H         1 <0>         0.1305
     36 H7         -5.9083   -1.9876   -0.8972 H         1 <0>         0.1290
     37 H8         -6.8926   -2.7355    1.2015 H         1 <0>         0.1261
     38 H9         -5.6097   -2.6501    3.2959 H         1 <0>         0.1262
     39 H10        -3.3217   -1.8154    3.3256 H         1 <0>         0.1290
     40 H11        -1.3774   -0.8866    2.0968 H         1 <0>         0.1300
     41 H12         0.1757   -0.7039   -1.9941 H         1 <0>         0.4049
     42 H13         2.3879   -2.0747   -2.6939 H         1 <0>         0.1061
     43 H14         2.5197   -0.4025   -3.2893 H         1 <0>         0.1065
     44 H15         4.5365   -0.8207   -1.3569 H         1 <0>         0.4147
     45 H16         6.7076   -1.1970   -2.1348 H         1 <0>         0.4206
     46 H17         6.0375   -1.3174   -5.5818 H         1 <0>         0.1646
     47 H18         7.5447   -2.2263   -7.2960 H         1 <0>         0.1402
     48 H19        10.0743   -3.8150   -4.2164 H         1 <0>         0.1413
     49 H20         8.5655   -2.8945   -2.5096 H         1 <0>         0.1515
     50 H21        11.1041   -4.4338   -5.5921 H         1 <0>         0.4431
     51 H22         8.7524   -2.9574   -8.4547 H         1 <0>         0.4438
     52 H23        10.1420   -3.8080   -8.8647 H         1 <0>         0.4324
     53 H24        11.5030   -4.6625   -7.2080 H         1 <0>         0.4323
@<TRIPOS>BOND
     1    1    2 1
     2    1   31 1
     3    1   32 1
     4    1   33 1
     5    2    3 1
     6    2    4 1
     7    2   14 1
     8    4   13 ar
     9    4    5 ar
    10    5    6 ar
    11    5   34 1
    12    6    7 ar
    13    6   35 1
    14    7   12 ar
    15    7    8 ar
    16    8    9 ar
    17    8   36 1
    18    9   10 ar
    19    9   37 1
    20   10   11 ar
    21   10   38 1
    22   11   12 ar
    23   11   39 1
    24   12   13 ar
    25   13   40 1
    26   14   15 am
    27   14   41 1
    28   15   16 2
    29   15   17 1
    30   17   18 1
    31   17   42 1
    32   17   43 1
    33   18   19 am
    34   18   44 1
    35   19   20 2
    36   19   21 am
    37   21   22 1
    38   21   45 1
    39   22   27 ar
    40   22   23 ar
    41   23   24 ar
    42   23   46 1
    43   24   25 ar
    44   24   47 1
    45   25   26 ar
    46   25   28 1
    47   26   27 ar
    48   26   48 1
    49   27   49 1
    50   28   29 2
    51   28   30 1
    52   29   50 1
    53   29   53 1
    54   30   51 1
    55   30   52 1
@<TRIPOS>MOLECULE
CHEMBL199211
   62    64     0     0     0
SMALL
USER_CHARGES

@<TRIPOS>ATOM
      1 C1          0.7558    1.4706    0.3942 C.3       1 <0>        -0.1546
      2 C2          0.5802   -0.0456    0.2882 C.3       1 <0>         0.0530
      3 O1          1.0493   -0.4915   -0.9859 O.3       1 <0>        -0.3062
      4 C3          0.9639   -1.8232   -1.2432 C.ar      1 <0>         0.1801
      5 C4          1.4067   -2.3254   -2.4590 C.ar      1 <0>        -0.1702
      6 C5          1.3201   -3.6790   -2.7213 C.ar      1 <0>         0.0123
      7 C6          0.7922   -4.5362   -1.7745 C.ar      1 <0>        -0.2333
      8 C7          0.3483   -4.0391   -0.5576 C.ar      1 <0>         0.1586
      9 C8          0.4398   -2.6817   -0.2896 C.ar      1 <0>        -0.2409
     10 O2         -0.1707   -4.8825    0.3730 O.3       1 <0>        -0.2975
     11 C9         -0.1193   -6.2806    0.0819 C.3       1 <0>         0.0718
     12 C10        -1.3324   -6.6719   -0.7670 C.3       1 <0>        -0.1770
     13 C11        -1.3135   -8.1828   -1.0080 C.3       1 <0>        -0.0032
     14 N1         -1.3667   -8.8879    0.2783 N.4       1 <0>        -0.3869
     15 C12        -0.1704   -8.5732    1.0686 C.3       1 <0>        -0.0022
     16 C13        -0.1454   -7.0773    1.3895 C.3       1 <0>        -0.1440
     17 C14        -1.4269  -10.3360    0.0392 C.3       1 <0>        -0.0473
     18 C15         1.8016   -4.2216   -4.0422 C.3       1 <0>         0.1002
     19 C16         3.3017   -4.3613   -4.0111 C.2       1 <0>         0.4924
     20 O3          3.8093   -5.4024   -3.6302 O.co2     1 <0>        -0.6777
     21 O4          4.0079   -3.4333   -4.3668 O.co2     1 <0>        -0.6580
     22 N2          1.4189   -3.3021   -5.1166 N.pl3     1 <0>        -0.6670
     23 C17         1.2684   -3.7749   -6.4161 C.ar      1 <0>         0.3035
     24 C18         1.4760   -5.1231   -6.6931 C.ar      1 <0>        -0.2005
     25 C19         1.3273   -5.5939   -7.9780 C.ar      1 <0>        -0.0014
     26 C20         0.9676   -4.7170   -9.0046 C.ar      1 <0>        -0.2497
     27 C21         0.7598   -3.3642   -8.7235 C.ar      1 <0>        -0.0016
     28 C22         0.9048   -2.9001   -7.4358 C.ar      1 <0>        -0.2034
     29 C23         0.8078   -5.2190  -10.3842 C.cat     1 <0>         0.6026
     30 N3          0.4646   -4.3815  -11.3625 N.pl3     1 <0>        -0.7791
     31 N4          1.0067   -6.5096  -10.6510 N.pl3     1 <0>        -0.7799
     32 H1          1.8108    1.7225    0.2869 H         1 <0>         0.0697
     33 H2          0.1836    1.9587   -0.3948 H         1 <0>         0.0676
     34 H3          0.3980    1.8107    1.3660 H         1 <0>         0.0811
     35 H4          1.1524   -0.5337    1.0772 H         1 <0>         0.0649
     36 H5         -0.4748   -0.2976    0.3955 H         1 <0>         0.0633
     37 H6          1.8189   -1.6573   -3.2008 H         1 <0>         0.1360
     38 H7          0.7250   -5.5940   -1.9821 H         1 <0>         0.1274
     39 H8          0.0989   -2.2935    0.6588 H         1 <0>         0.1381
     40 H9          0.7969   -6.5058   -0.4639 H         1 <0>         0.0970
     41 H10        -2.2476   -6.3985   -0.2418 H         1 <0>         0.1000
     42 H11        -1.2910   -6.1502   -1.7232 H         1 <0>         0.1191
     43 H12        -2.1757   -8.4648   -1.6123 H         1 <0>         0.1359
     44 H13        -0.3981   -8.4551   -1.5334 H         1 <0>         0.1331
     45 H14        -0.1888   -9.1434    1.9974 H         1 <0>         0.1401
     46 H15         0.7206   -8.8371    0.4989 H         1 <0>         0.1344
     47 H16         0.7444   -6.8454    1.9748 H         1 <0>         0.1233
     48 H17        -1.0359   -6.8123    1.9595 H         1 <0>         0.0996
     49 H18        -0.5404  -10.6504   -0.5117 H         1 <0>         0.1232
     50 H19        -1.4664  -10.8606    0.9939 H         1 <0>         0.1252
     51 H20        -2.3184  -10.5715   -0.5420 H         1 <0>         0.1239
     52 H21         1.3494   -5.1972   -4.2208 H         1 <0>         0.0928
     53 H22         1.2705   -2.3635   -4.9217 H         1 <0>         0.4097
     54 H23         1.7544   -5.8003   -5.8993 H         1 <0>         0.1431
     55 H24         1.4889   -6.6400   -8.1924 H         1 <0>         0.1291
     56 H25         0.4821   -2.6841   -9.5152 H         1 <0>         0.1306
     57 H26         0.7400   -1.8554   -7.2172 H         1 <0>         0.1412
     58 H27         0.3199   -3.4422  -11.1684 H         1 <0>         0.4403
     59 H28         1.2565   -7.1191   -9.9390 H         1 <0>         0.4399
     60 H29         0.9018   -6.8393  -11.5572 H         1 <0>         0.4260
     61 H30         0.3597   -4.7112  -12.2687 H         1 <0>         0.4261
     62 H31        -2.1894   -8.5983    0.7856 H         1 <0>         0.4257
@<TRIPOS>BOND
     1    1    2 1
     2    1   32 1
     3    1   33 1
     4    1   34 1
     5    2    3 1
     6    2   35 1
     7    2   36 1
     8    3    4 1
     9    4    9 ar
    10    4    5 ar
    11    5    6 ar
    12    5   37 1
    13    6    7 ar
    14    6   18 1
    15    7    8 ar
    16    7   38 1
    17    8    9 ar
    18    8   10 1
    19    9   39 1
    20   10   11 1
    21   11   16 1
    22   11   12 1
    23   11   40 1
    24   12   13 1
    25   12   41 1
    26   12   42 1
    27   13   14 1
    28   13   43 1
    29   13   44 1
    30   14   15 1
    31   14   17 1
    32   14   62 1
    33   15   16 1
    34   15   45 1
    35   15   46 1
    36   16   47 1
    37   16   48 1
    38   17   49 1
    39   17   50 1
    40   17   51 1
    41   18   19 1
    42   18   22 1
    43   18   52 1
    44   19   20 2
    45   19   21 1
    46   22   23 1
    47   22   53 1
    48   23   28 ar
    49   23   24 ar
    50   24   25 ar
    51   24   54 1
    52   25   26 ar
    53   25   55 1
    54   26   27 ar
    55   26   29 1
    56   27   28 ar
    57   27   56 1
    58   28   57 1
    59   29   30 2
    60   29   31 1
    61   30   58 1
    62   30   61 1
    63   31   59 1
    64   31   60 1
@<TRIPOS>MOLECULE
CHEMBL199211__1
   62    64     0     0     0
SMALL
USER_CHARGES

@<TRIPOS>ATOM
      1 C1          0.7558    1.4706    0.3942 C.3       1 <0>        -0.1546
      2 C2          0.5802   -0.0456    0.2882 C.3       1 <0>         0.0530
      3 O1          1.0494   -0.4915   -0.9858 O.3       1 <0>        -0.3068
      4 C3          0.9640   -1.8232   -1.2432 C.ar      1 <0>         0.1810
      5 C4          1.4068   -2.3254   -2.4590 C.ar      1 <0>        -0.1765
      6 C5          1.3202   -3.6790   -2.7212 C.ar      1 <0>         0.0174
      7 C6          0.7924   -4.5363   -1.7745 C.ar      1 <0>        -0.2292
      8 C7          0.3483   -4.0391   -0.5576 C.ar      1 <0>         0.1599
      9 C8          0.4398   -2.6817   -0.2895 C.ar      1 <0>        -0.2417
     10 O2         -0.1707   -4.8825    0.3730 O.3       1 <0>        -0.2978
     11 C9         -0.1193   -6.2806    0.0819 C.3       1 <0>         0.0762
     12 C10        -1.3324   -6.6719   -0.7670 C.3       1 <0>        -0.1825
     13 C11        -1.3135   -8.1828   -1.0080 C.3       1 <0>        -0.0014
     14 N1         -1.3667   -8.8879    0.2783 N.4       1 <0>        -0.3880
     15 C12        -0.1704   -8.5732    1.0686 C.3       1 <0>        -0.0002
     16 C13        -0.1454   -7.0773    1.3895 C.3       1 <0>        -0.1444
     17 C14        -1.4269  -10.3360    0.0392 C.3       1 <0>        -0.0468
     18 C15         1.8018   -4.2216   -4.0421 C.3       1 <0>         0.0984
     19 C16         0.7491   -3.9881   -5.0949 C.2       1 <0>         0.4923
     20 O3          0.9426   -3.1721   -5.9799 O.co2     1 <0>        -0.6590
     21 O4         -0.2960   -4.6151   -5.0617 O.co2     1 <0>        -0.6770
     22 N2          3.0390   -3.5389   -4.4287 N.pl3     1 <0>        -0.6660
     23 C17         3.9423   -4.1659   -5.2807 C.ar      1 <0>         0.3095
     24 C18         3.6666   -5.4395   -5.7699 C.ar      1 <0>        -0.1980
     25 C19         4.5584   -6.0621   -6.6135 C.ar      1 <0>        -0.0020
     26 C20         5.7412   -5.4144   -6.9788 C.ar      1 <0>        -0.2501
     27 C21         6.0153   -4.1359   -6.4863 C.ar      1 <0>        -0.0017
     28 C22         5.1174   -3.5160   -5.6472 C.ar      1 <0>        -0.2033
     29 C23         6.7002   -6.0800   -7.8834 C.cat     1 <0>         0.6026
     30 N3          7.8281   -5.4610   -8.2310 N.pl3     1 <0>        -0.7794
     31 N4          6.4377   -7.2997   -8.3521 N.pl3     1 <0>        -0.7802
     32 H1          1.8109    1.7225    0.2870 H         1 <0>         0.0677
     33 H2          0.1837    1.9586   -0.3948 H         1 <0>         0.0694
     34 H3          0.3980    1.8107    1.3660 H         1 <0>         0.0811
     35 H4          1.1524   -0.5337    1.0772 H         1 <0>         0.0637
     36 H5         -0.4748   -0.2976    0.3954 H         1 <0>         0.0647
     37 H6          1.8191   -1.6573   -3.2007 H         1 <0>         0.1338
     38 H7          0.7251   -5.5940   -1.9821 H         1 <0>         0.1270
     39 H8          0.0989   -2.2935    0.6588 H         1 <0>         0.1380
     40 H9          0.7969   -6.5058   -0.4639 H         1 <0>         0.0908
     41 H10        -2.2476   -6.3985   -0.2418 H         1 <0>         0.1010
     42 H11        -1.2910   -6.1502   -1.7232 H         1 <0>         0.1285
     43 H12        -2.1757   -8.4648   -1.6123 H         1 <0>         0.1392
     44 H13        -0.3981   -8.4551   -1.5334 H         1 <0>         0.1310
     45 H14        -0.1888   -9.1434    1.9974 H         1 <0>         0.1386
     46 H15         0.7206   -8.8371    0.4989 H         1 <0>         0.1307
     47 H16         0.7444   -6.8454    1.9748 H         1 <0>         0.1206
     48 H17        -1.0359   -6.8123    1.9595 H         1 <0>         0.1007
     49 H18        -0.5404  -10.6504   -0.5117 H         1 <0>         0.1215
     50 H19        -1.4664  -10.8606    0.9939 H         1 <0>         0.1241
     51 H20        -2.3184  -10.5715   -0.5420 H         1 <0>         0.1254
     52 H21         1.9909   -5.2910   -3.9484 H         1 <0>         0.0930
     53 H22         3.2283   -2.6497   -4.0904 H         1 <0>         0.4088
     54 H23         2.7523   -5.9399   -5.4869 H         1 <0>         0.1393
     55 H24         4.3441   -7.0505   -6.9925 H         1 <0>         0.1284
     56 H25         6.9290   -3.6330   -6.7667 H         1 <0>         0.1302
     57 H26         5.3266   -2.5260   -5.2697 H         1 <0>         0.1407
     58 H27         8.0192   -4.5733   -7.8899 H         1 <0>         0.4402
     59 H28         5.6168   -7.7502   -8.0991 H         1 <0>         0.4397
     60 H29         7.0676   -7.7368   -8.9463 H         1 <0>         0.4258
     61 H30         8.4580   -5.8981   -8.8252 H         1 <0>         0.4259
     62 H31        -2.1894   -8.5983    0.7856 H         1 <0>         0.4267
@<TRIPOS>BOND
     1    1    2 1
     2    1   32 1
     3    1   33 1
     4    1   34 1
     5    2    3 1
     6    2   35 1
     7    2   36 1
     8    3    4 1
     9    4    9 ar
    10    4    5 ar
    11    5    6 ar
    12    5   37 1
    13    6    7 ar
    14    6   18 1
    15    7    8 ar
    16    7   38 1
    17    8    9 ar
    18    8   10 1
    19    9   39 1
    20   10   11 1
    21   11   16 1
    22   11   12 1
    23   11   40 1
    24   12   13 1
    25   12   41 1
    26   12   42 1
    27   13   14 1
    28   13   43 1
    29   13   44 1
    30   14   15 1
    31   14   17 1
    32   14   62 1
    33   15   16 1
    34   15   45 1
    35   15   46 1
    36   16   47 1
    37   16   48 1
    38   17   49 1
    39   17   50 1
    40   17   51 1
    41   18   19 1
    42   18   22 1
    43   18   52 1
    44   19   20 2
    45   19   21 1
    46   22   23 1
    47   22   53 1
    48   23   28 ar
    49   23   24 ar
    50   24   25 ar
    51   24   54 1
    52   25   26 ar
    53   25   55 1
    54   26   27 ar
    55   26   29 1
    56   27   28 ar
    57   27   56 1
    58   28   57 1
    59   29   30 2
    60   29   31 1
    61   30   58 1
    62   30   61 1
    63   31   59 1
    64   31   60 1
@<TRIPOS>MOLECULE
CHEMBL382064
   62    65     0     0     0
SMALL
USER_CHARGES

@<TRIPOS>ATOM
      1 C1         -0.1019    1.7450    0.4023 C.3       1 <0>        -0.1491
      2 C2         -0.0946    0.2164    0.3385 C.3       1 <0>        -0.0919
      3 C3          0.6370   -0.3416    1.5610 C.3       1 <0>        -0.1502
      4 C4         -1.5346   -0.3004    0.3262 C.3       1 <0>        -0.1337
      5 C5         -1.5320   -1.8121    0.0900 C.3       1 <0>         0.0948
      6 N1         -2.9124   -2.2961    0.0093 N.am      1 <0>        -0.6022
      7 C6         -3.5593   -2.4505   -1.2961 C.3       1 <0>         0.1478
      8 C7         -3.3077   -3.8408   -1.8201 C.ar      1 <0>        -0.0929
      9 C8         -2.1797   -4.0867   -2.6008 C.ar      1 <0>        -0.0668
     10 C9         -1.9229   -5.3310   -3.0898 C.ar      1 <0>        -0.1165
     11 C10        -2.8052   -6.3868   -2.8056 C.ar      1 <0>        -0.0117
     12 C11        -2.5668   -7.6837   -3.2961 C.ar      1 <0>        -0.0809
     13 C12        -3.4333   -8.6882   -3.0085 C.ar      1 <0>        -0.0953
     14 C13        -4.5745   -8.4529   -2.2217 C.ar      1 <0>        -0.1603
     15 C14        -4.8366   -7.1881   -1.7240 C.ar      1 <0>        -0.0112
     16 C15        -3.9527   -6.1369   -2.0110 C.ar      1 <0>        -0.0675
     17 C16        -4.1822   -4.8392   -1.5195 C.ar      1 <0>        -0.0676
     18 C17        -5.5026   -9.5654   -1.9239 C.cat     1 <0>         0.6023
     19 N2         -5.6467  -10.5634   -2.7939 N.pl3     1 <0>        -0.7590
     20 N3         -6.1942   -9.5691   -0.7858 N.pl3     1 <0>        -0.7610
     21 C18        -3.5871   -2.5994    1.1358 C.2       1 <0>         0.5727
     22 O1         -4.7018   -3.0804    1.0661 O.2       1 <0>        -0.5294
     23 C19        -2.9737   -2.3479    2.4530 C.ar      1 <0>        -0.1173
     24 C20        -1.7563   -2.9260    2.7817 C.ar      1 <0>        -0.0798
     25 C21        -1.1734   -2.6929    4.0208 C.ar      1 <0>        -0.1250
     26 C22        -1.7768   -1.8938    4.9454 C.ar      1 <0>        -0.0764
     27 C23        -3.0112   -1.2873    4.6554 C.ar      1 <0>        -0.0542
     28 C24        -3.6185   -1.5081    3.3954 C.ar      1 <0>        -0.0144
     29 C25        -4.8467   -0.8988    3.1056 C.ar      1 <0>        -0.1098
     30 C26        -5.4386   -0.0977    4.0353 C.ar      1 <0>        -0.1039
     31 C27        -4.8401    0.1258    5.2731 C.ar      1 <0>        -0.1123
     32 C28        -3.6534   -0.4598    5.5930 C.ar      1 <0>        -0.1025
     33 H1          0.9240    2.1132    0.4111 H         1 <0>         0.0578
     34 H2         -0.6231    2.1425   -0.4686 H         1 <0>         0.0546
     35 H3         -0.6117    2.0684    1.3098 H         1 <0>         0.0551
     36 H4          0.4153   -0.1070   -0.5689 H         1 <0>         0.0707
     37 H5          0.6252   -1.4309    1.5256 H         1 <0>         0.0528
     38 H6          1.6684    0.0108    1.5593 H         1 <0>         0.0569
     39 H7          0.1385   -0.0021    2.4690 H         1 <0>         0.0565
     40 H8         -2.0069   -0.0832    1.2843 H         1 <0>         0.0696
     41 H9         -2.0902    0.1912   -0.4725 H         1 <0>         0.0672
     42 H10        -1.0143   -2.0331   -0.8434 H         1 <0>         0.0822
     43 H11        -1.0208   -2.3078    0.9152 H         1 <0>         0.0917
     44 H12        -4.6324   -2.2905   -1.1910 H         1 <0>         0.0990
     45 H13        -3.1496   -1.7197   -1.9933 H         1 <0>         0.0965
     46 H14        -1.4991   -3.2777   -2.8216 H         1 <0>         0.1357
     47 H15        -1.0449   -5.5057   -3.6940 H         1 <0>         0.1418
     48 H16        -1.6944   -7.8800   -3.9018 H         1 <0>         0.1481
     49 H17        -3.2438   -9.6809   -3.3892 H         1 <0>         0.1366
     50 H18        -5.7146   -7.0118   -1.1204 H         1 <0>         0.1436
     51 H19        -5.0499   -4.6354   -0.9097 H         1 <0>         0.1455
     52 H20        -5.1430  -10.5606   -3.6229 H         1 <0>         0.4465
     53 H21        -6.0893   -8.8423   -0.1521 H         1 <0>         0.4459
     54 H22        -6.8028  -10.2987   -0.5905 H         1 <0>         0.4329
     55 H23        -1.2570   -3.5638    2.0674 H         1 <0>         0.1266
     56 H24        -0.2252   -3.1534    4.2559 H         1 <0>         0.1310
     57 H25        -1.3058   -1.7265    5.9027 H         1 <0>         0.1334
     58 H26        -5.3218   -1.0632    2.1497 H         1 <0>         0.1278
     59 H27        -6.3851    0.3709    3.8092 H         1 <0>         0.1265
     60 H28        -5.3291    0.7653    5.9931 H         1 <0>         0.1281
     61 H29        -3.2009   -0.2784    6.5567 H         1 <0>         0.1322
     62 H30        -6.2553  -11.2930   -2.5987 H         1 <0>         0.4324
@<TRIPOS>BOND
     1    1    2 1
     2    1   33 1
     3    1   34 1
     4    1   35 1
     5    2    3 1
     6    2    4 1
     7    2   36 1
     8    3   37 1
     9    3   38 1
    10    3   39 1
    11    4    5 1
    12    4   40 1
    13    4   41 1
    14    5    6 1
    15    5   42 1
    16    5   43 1
    17    6    7 1
    18    6   21 am
    19    7    8 1
    20    7   44 1
    21    7   45 1
    22    8   17 ar
    23    8    9 ar
    24    9   10 ar
    25    9   46 1
    26   10   11 ar
    27   10   47 1
    28   11   16 ar
    29   11   12 ar
    30   12   13 ar
    31   12   48 1
    32   13   14 ar
    33   13   49 1
    34   14   15 ar
    35   14   18 1
    36   15   16 ar
    37   15   50 1
    38   16   17 ar
    39   17   51 1
    40   18   19 2
    41   18   20 1
    42   19   52 1
    43   19   62 1
    44   20   53 1
    45   20   54 1
    46   21   22 2
    47   21   23 1
    48   23   28 ar
    49   23   24 ar
    50   24   25 ar
    51   24   55 1
    52   25   26 ar
    53   25   56 1
    54   26   27 ar
    55   26   57 1
    56   27   32 ar
    57   27   28 ar
    58   28   29 ar
    59   29   30 ar
    60   29   58 1
    61   30   31 ar
    62   30   59 1
    63   31   32 ar
    64   31   60 1
    65   32   61 1
@<TRIPOS>MOLECULE
CHEMBL27852
   78    82     0     0     0
SMALL
USER_CHARGES

@<TRIPOS>ATOM
      1 C1         -0.0167    1.3781    0.0096 C.ar      1 <0>        -0.1009
      2 C2          1.1709    2.0855    0.0021 C.ar      1 <0>        -0.1051
      3 C3          2.3773    1.4107   -0.0130 C.ar      1 <0>        -0.1042
      4 C4          2.3960    0.0285   -0.0201 C.ar      1 <0>        -0.1290
      5 C5          1.2084   -0.6789   -0.0117 C.ar      1 <0>        -0.1416
      6 C6          0.0021   -0.0041    0.0020 C.ar      1 <0>        -0.1064
      7 C7          3.7112   -0.7071   -0.0376 C.3       1 <0>        -0.0877
      8 C8          4.1714   -0.9633    1.3989 C.3       1 <0>         0.0747
      9 C9          4.3721    0.3739    2.1235 C.3       1 <0>        -0.1419
     10 C10         4.8040    0.0705    3.5593 C.3       1 <0>        -0.1274
     11 C11         6.0434   -0.7902    3.5895 C.3       1 <0>         0.0506
     12 C12         7.2874   -0.0577    3.0511 C.3       1 <0>        -0.1522
     13 C13         8.2641   -1.2322    2.7893 C.3       1 <0>        -0.1496
     14 C14         7.3671   -2.4794    2.6602 C.3       1 <0>         0.0468
     15 H1          7.5349   -2.9619    1.6973 H         1 <0>         0.1141
     16 N1          5.9574   -2.0024    2.7536 N.3       1 <0>        -0.4839
     17 C15         5.5033   -1.7083    1.3870 C.3       1 <0>         0.0152
     18 C16         7.6615   -3.4450    3.7792 C.2       1 <0>         0.5271
     19 O1          6.7908   -3.7402    4.5701 O.2       1 <0>        -0.5065
     20 N2          8.8924   -3.9804    3.9009 N.am      1 <0>        -0.7190
     21 C17         9.1786   -4.9190    4.9887 C.3       1 <0>         0.1314
     22 H2          8.2954   -5.5266    5.1861 H         1 <0>         0.1337
     23 C18        10.3425   -5.8267    4.5860 C.3       1 <0>        -0.1215
     24 C19         9.9234   -6.6975    3.3998 C.3       1 <0>        -0.1278
     25 C20        11.0874   -7.6052    2.9971 C.3       1 <0>         0.0915
     26 N3         10.6861   -8.4390    1.8613 N.pl3     1 <0>        -0.6965
     27 C21        11.5693   -9.3353    1.3250 C.cat     1 <0>         0.7426
     28 N4         11.2045  -10.0933    0.2924 N.pl3     1 <0>        -0.7934
     29 N5         12.7942   -9.4501    1.8355 N.pl3     1 <0>        -0.7916
     30 C22         9.5476   -4.1504    6.2313 C.2       1 <0>         0.4418
     31 O2          9.8351   -2.9750    6.1542 O.2       1 <0>        -0.4087
     32 C23         9.5589   -4.8261    7.5377 C.2       1 <0>         0.0353
     33 N6          9.2857   -6.0825    7.8211 N.2       1 <0>        -0.4378
     34 C24         9.3347   -6.5710    9.0624 C.ar      1 <0>         0.0529
     35 C25         9.0647   -7.8954    9.4955 C.ar      1 <0>        -0.0420
     36 C26         9.1609   -8.2305   10.8072 C.ar      1 <0>        -0.1143
     37 C27         9.5239   -7.3014   11.7759 C.ar      1 <0>        -0.0606
     38 C28         9.7959   -6.0011   11.4005 C.ar      1 <0>        -0.0765
     39 C29         9.7030   -5.6469   10.0749 C.ar      1 <0>        -0.1266
     40 S1          9.9548   -4.1534    9.1463 S.3       1 <0>         0.0801
     41 N7          3.1629   -1.7638    2.1062 N.4       1 <0>        -0.6291
     42 H3         -0.9591    1.9053    0.0259 H         1 <0>         0.1334
     43 H4          1.1563    3.1654    0.0076 H         1 <0>         0.1334
     44 H5          3.3051    1.9634   -0.0196 H         1 <0>         0.1290
     45 H6          1.2231   -1.7588   -0.0176 H         1 <0>         0.1222
     46 H7         -0.9258   -0.5567    0.0082 H         1 <0>         0.1326
     47 H8          3.5884   -1.6586   -0.5549 H         1 <0>         0.1000
     48 H9          4.4573   -0.1052   -0.5563 H         1 <0>         0.1186
     49 H10         5.1460    0.9535    1.6202 H         1 <0>         0.1129
     50 H11         3.4368    0.9337    2.1302 H         1 <0>         0.1026
     51 H12         5.0081    1.0082    4.0761 H         1 <0>         0.1046
     52 H13         3.9955   -0.4499    4.0727 H         1 <0>         0.0695
     53 H14         6.2452   -1.0850    4.6193 H         1 <0>         0.1069
     54 H15         7.0578    0.4713    2.1261 H         1 <0>         0.0775
     55 H16         7.6911    0.6252    3.7986 H         1 <0>         0.0912
     56 H17         8.8166   -1.0661    1.8645 H         1 <0>         0.0881
     57 H18         8.9522   -1.3461    3.6269 H         1 <0>         0.0897
     58 H19         5.3848   -2.6439    0.8404 H         1 <0>         0.1044
     59 H20         6.2518   -1.0947    0.8857 H         1 <0>         0.0901
     60 H21         9.5887   -3.7442    3.2683 H         1 <0>         0.4069
     61 H22        11.1992   -5.2151    4.3030 H         1 <0>         0.0872
     62 H23        10.6136   -6.4647    5.4272 H         1 <0>         0.1041
     63 H24         9.0667   -7.3091    3.6828 H         1 <0>         0.0900
     64 H25         9.6524   -6.0595    2.5586 H         1 <0>         0.0838
     65 H26        11.9441   -6.9936    2.7141 H         1 <0>         0.0946
     66 H27        11.3584   -8.2432    3.8383 H         1 <0>         0.0963
     67 H28         9.7941   -8.3554    1.4895 H         1 <0>         0.4349
     68 H29        10.3125  -10.0097   -0.0794 H         1 <0>         0.4407
     69 H30        13.0599   -8.8981    2.5876 H         1 <0>         0.4400
     70 H31        13.4205  -10.0857    1.4553 H         1 <0>         0.4425
     71 H32         8.7790   -8.6453    8.7728 H         1 <0>         0.1370
     72 H33         8.9493   -9.2464   11.1067 H         1 <0>         0.1427
     73 H34         9.5922   -7.5945   12.8131 H         1 <0>         0.1491
     74 H35        10.0788   -5.2681   12.1415 H         1 <0>         0.1430
     75 H36         3.0404   -2.6458    1.6318 H         1 <0>         0.4316
     76 H37         3.4695   -1.9307    3.0529 H         1 <0>         0.4394
     77 H38        11.8308  -10.7289   -0.0879 H         1 <0>         0.4428
     78 H39         2.2862   -1.2645    2.1198 H         1 <0>         0.4309
@<TRIPOS>BOND
     1    1    6 ar
     2    1    2 ar
     3    1   42 1
     4    2    3 ar
     5    2   43 1
     6    3    4 ar
     7    3   44 1
     8    4    5 ar
     9    4    7 1
    10    5    6 ar
    11    5   45 1
    12    6   46 1
    13    7    8 1
    14    7   47 1
    15    7   48 1
    16    8   17 1
    17    8    9 1
    18    8   41 1
    19    9   10 1
    20    9   49 1
    21    9   50 1
    22   10   11 1
    23   10   51 1
    24   10   52 1
    25   11   16 1
    26   11   12 1
    27   11   53 1
    28   12   13 1
    29   12   54 1
    30   12   55 1
    31   13   14 1
    32   13   56 1
    33   13   57 1
    34   14   15 1
    35   14   16 1
    36   14   18 1
    37   16   17 1
    38   17   58 1
    39   17   59 1
    40   18   19 2
    41   18   20 am
    42   20   21 1
    43   20   60 1
    44   21   22 1
    45   21   23 1
    46   21   30 1
    47   23   24 1
    48   23   61 1
    49   23   62 1
    50   24   25 1
    51   24   63 1
    52   24   64 1
    53   25   26 1
    54   25   65 1
    55   25   66 1
    56   26   27 1
    57   26   67 1
    58   27   28 2
    59   27   29 1
    60   28   68 1
    61   28   77 1
    62   29   69 1
    63   29   70 1
    64   30   31 2
    65   30   32 1
    66   32   40 1
    67   32   33 2
    68   33   34 1
    69   34   39 ar
    70   34   35 ar
    71   35   36 ar
    72   35   71 1
    73   36   37 ar
    74   36   72 1
    75   37   38 ar
    76   37   73 1
    77   38   39 ar
    78   38   74 1
    79   39   40 1
    80   41   75 1
    81   41   76 1
    82   41   78 1
@<TRIPOS>MOLECULE
CHEMBL27852__1
   78    82     0     0     0
SMALL
USER_CHARGES

@<TRIPOS>ATOM
      1 C1         -0.0167    1.3781    0.0096 C.ar      1 <0>        -0.1089
      2 C2          1.1709    2.0855    0.0021 C.ar      1 <0>        -0.1116
      3 C3          2.3773    1.4107   -0.0130 C.ar      1 <0>        -0.1126
      4 C4          2.3960    0.0285   -0.0201 C.ar      1 <0>        -0.1012
      5 C5          1.2084   -0.6789   -0.0117 C.ar      1 <0>        -0.1224
      6 C6          0.0021   -0.0041    0.0020 C.ar      1 <0>        -0.1110
      7 C7          3.7112   -0.7071   -0.0376 C.3       1 <0>        -0.1021
      8 C8          4.1714   -0.9633    1.3989 C.3       1 <0>         0.1083
      9 C9          4.3725    0.3739    2.1235 C.3       1 <0>        -0.1230
     10 C10         4.8218    0.0702    3.5540 C.3       1 <0>        -0.1248
     11 C11         6.0588   -0.7946    3.5685 C.3       1 <0>         0.0367
     12 C12         7.2926   -0.0744    2.9913 C.3       1 <0>        -0.1401
     13 C13         8.2588   -1.2561    2.7227 C.3       1 <0>        -0.1400
     14 C14         7.3547   -2.5015    2.6313 C.3       1 <0>         0.0022
     15 H1          7.4976   -2.9970    1.6710 H         1 <0>         0.1647
     16 N1          5.9496   -2.0178    2.7521 N.4       1 <0>        -0.3599
     17 C15         5.5033   -1.7083    1.3870 C.3       1 <0>         0.0053
     18 C16         7.6724   -3.4536    3.7554 C.2       1 <0>         0.5136
     19 O1          6.8198   -3.7354    4.5707 O.2       1 <0>        -0.5093
     20 N2          8.9039   -3.9920    3.8547 N.am      1 <0>        -0.6971
     21 C17         9.2127   -4.9176    4.9475 C.3       1 <0>         0.1266
     22 H2          8.3324   -5.5192    5.1738 H         1 <0>         0.1403
     23 C18        10.3636   -5.8349    4.5290 C.3       1 <0>        -0.1229
     24 C19         9.9133   -6.7193    3.3646 C.3       1 <0>        -0.1296
     25 C20        11.0641   -7.6365    2.9461 C.3       1 <0>         0.0918
     26 N3         10.6330   -8.4834    1.8311 N.pl3     1 <0>        -0.6984
     27 C21        11.5000   -9.3899    1.2857 C.cat     1 <0>         0.7434
     28 N4         11.1080  -10.1598    0.2720 N.pl3     1 <0>        -0.7922
     29 N5         12.7363   -9.5027    1.7683 N.pl3     1 <0>        -0.7910
     30 C22         9.6140   -4.1344    6.1709 C.2       1 <0>         0.4453
     31 O2          9.9037   -2.9612    6.0716 O.2       1 <0>        -0.4104
     32 C23         9.6542   -4.7932    7.4853 C.2       1 <0>         0.0233
     33 N6          9.3835   -6.0448    7.7915 N.2       1 <0>        -0.4344
     34 C24         9.4603   -6.5174    9.0375 C.ar      1 <0>         0.0508
     35 C25         9.1962   -7.8351    9.4941 C.ar      1 <0>        -0.0400
     36 C26         9.3225   -8.1536   10.8074 C.ar      1 <0>        -0.1138
     37 C27         9.7118   -7.2134   11.7550 C.ar      1 <0>        -0.0559
     38 C28         9.9792   -5.9190   11.3563 C.ar      1 <0>        -0.0777
     39 C29         9.8559   -5.5816   10.0288 C.ar      1 <0>        -0.1238
     40 S1         10.0907   -4.1013    9.0751 S.3       1 <0>         0.0887
     41 N7          3.1629   -1.7636    2.1063 N.3       1 <0>        -0.8474
     42 H3         -0.9591    1.9053    0.0259 H         1 <0>         0.1286
     43 H4          1.1563    3.1654    0.0076 H         1 <0>         0.1281
     44 H5          3.3051    1.9634   -0.0196 H         1 <0>         0.1224
     45 H6          1.2231   -1.7588   -0.0176 H         1 <0>         0.1181
     46 H7         -0.9258   -0.5567    0.0082 H         1 <0>         0.1274
     47 H8          3.5884   -1.6586   -0.5549 H         1 <0>         0.0815
     48 H9          4.4573   -0.1052   -0.5563 H         1 <0>         0.0873
     49 H10         5.1376    0.9587    1.6128 H         1 <0>         0.0852
     50 H11         3.4342    0.9285    2.1414 H         1 <0>         0.1006
     51 H12         5.0356    1.0076    4.0675 H         1 <0>         0.1083
     52 H13         4.0183   -0.4474    4.0781 H         1 <0>         0.1013
     53 H14         6.2829   -1.0755    4.5975 H         1 <0>         0.1326
     54 H15         7.0434    0.4431    2.0649 H         1 <0>         0.1036
     55 H16         7.7161    0.6169    3.7199 H         1 <0>         0.1231
     56 H17         8.7901   -1.1044    1.7831 H         1 <0>         0.1184
     57 H18         8.9659   -1.3613    3.5455 H         1 <0>         0.1128
     58 H19         5.3880   -2.6377    0.8293 H         1 <0>         0.1252
     59 H20         6.2547   -1.0893    0.8969 H         1 <0>         0.1350
     60 H21         9.5858   -3.7667    3.2027 H         1 <0>         0.4153
     61 H22        11.2154   -5.2302    4.2178 H         1 <0>         0.0909
     62 H23        10.6524   -6.4630    5.3717 H         1 <0>         0.1098
     63 H24         9.0615   -7.3239    3.6758 H         1 <0>         0.0918
     64 H25         9.6244   -6.0912    2.5218 H         1 <0>         0.0822
     65 H26        11.9159   -7.0319    2.6349 H         1 <0>         0.0953
     66 H27        11.3530   -8.2646    3.7888 H         1 <0>         0.0973
     67 H28         9.7326   -8.4012    1.4796 H         1 <0>         0.4348
     68 H29        10.2077  -10.0777   -0.0795 H         1 <0>         0.4411
     69 H30        13.0218   -8.9420    2.5066 H         1 <0>         0.4398
     70 H31        13.3512  -10.1455    1.3816 H         1 <0>         0.4432
     71 H32         8.8907   -8.5932    8.7882 H         1 <0>         0.1378
     72 H33         9.1146   -9.1646   11.1251 H         1 <0>         0.1441
     73 H34         9.8038   -7.4933   12.7940 H         1 <0>         0.1506
     74 H35        10.2822   -5.1776   12.0808 H         1 <0>         0.1443
     75 H36         2.2752   -1.2847    2.1335 H         1 <0>         0.3708
     76 H37         3.0682   -2.6772    1.6887 H         1 <0>         0.3468
     77 H38        11.7229  -10.8027   -0.1148 H         1 <0>         0.4436
     78 H39         5.3596   -2.7049    3.1969 H         1 <0>         0.4414
@<TRIPOS>BOND
     1    1    6 ar
     2    1    2 ar
     3    1   42 1
     4    2    3 ar
     5    2   43 1
     6    3    4 ar
     7    3   44 1
     8    4    5 ar
     9    4    7 1
    10    5    6 ar
    11    5   45 1
    12    6   46 1
    13    7    8 1
    14    7   47 1
    15    7   48 1
    16    8   17 1
    17    8    9 1
    18    8   41 1
    19    9   10 1
    20    9   49 1
    21    9   50 1
    22   10   11 1
    23   10   51 1
    24   10   52 1
    25   11   16 1
    26   11   12 1
    27   11   53 1
    28   12   13 1
    29   12   54 1
    30   12   55 1
    31   13   14 1
    32   13   56 1
    33   13   57 1
    34   14   15 1
    35   14   16 1
    36   14   18 1
    37   16   17 1
    38   16   78 1
    39   17   58 1
    40   17   59 1
    41   18   19 2
    42   18   20 am
    43   20   21 1
    44   20   60 1
    45   21   22 1
    46   21   23 1
    47   21   30 1
    48   23   24 1
    49   23   61 1
    50   23   62 1
    51   24   25 1
    52   24   63 1
    53   24   64 1
    54   25   26 1
    55   25   65 1
    56   25   66 1
    57   26   27 1
    58   26   67 1
    59   27   28 2
    60   27   29 1
    61   28   68 1
    62   28   77 1
    63   29   69 1
    64   29   70 1
    65   30   31 2
    66   30   32 1
    67   32   40 1
    68   32   33 2
    69   33   34 1
    70   34   39 ar
    71   34   35 ar
    72   35   36 ar
    73   35   71 1
    74   36   37 ar
    75   36   72 1
    76   37   38 ar
    77   37   73 1
    78   38   39 ar
    79   38   74 1
    80   39   40 1
    81   41   75 1
    82   41   76 1
@<TRIPOS>MOLECULE
CHEMBL27852__2
   78    82     0     0     0
SMALL
USER_CHARGES

@<TRIPOS>ATOM
      1 C1         -0.0167    1.3781    0.0096 C.ar      1 <0>        -0.1013
      2 C2          1.1709    2.0855    0.0021 C.ar      1 <0>        -0.1053
      3 C3          2.3773    1.4107   -0.0130 C.ar      1 <0>        -0.1037
      4 C4          2.3960    0.0285   -0.0201 C.ar      1 <0>        -0.1279
      5 C5          1.2084   -0.6789   -0.0117 C.ar      1 <0>        -0.1418
      6 C6          0.0021   -0.0041    0.0020 C.ar      1 <0>        -0.1063
      7 C7          3.7112   -0.7071   -0.0376 C.3       1 <0>        -0.0911
      8 C8          4.1714   -0.9633    1.3989 C.3       1 <0>         0.0820
      9 C9          4.3140    0.3723    2.1278 C.3       1 <0>        -0.1427
     10 C10         4.9130    0.1636    3.5271 C.3       1 <0>        -0.1196
     11 C11         6.2430   -0.5598    3.3556 C.3       1 <0>         0.0631
     12 C12         6.9012   -0.9471    4.6920 C.3       1 <0>        -0.1161
     13 C13         7.7887   -2.1534    4.2799 C.3       1 <0>        -0.1255
     14 C14         7.1533   -2.6906    2.9745 C.3       1 <0>         0.0697
     15 H1          7.8462   -2.5690    2.1419 H         1 <0>         0.0861
     16 N1          5.9512   -1.8865    2.7516 N.3       1 <0>        -0.5355
     17 C15         5.5120   -1.7132    1.3750 C.3       1 <0>         0.0467
     18 C16         6.7857   -4.1431    3.1355 C.2       1 <0>         0.5307
     19 O1          5.6280   -4.4904    3.0354 O.2       1 <0>        -0.5241
     20 N2          7.7435   -5.0564    3.3907 N.am      1 <0>        -0.7165
     21 C17         7.3861   -6.4685    3.5472 C.3       1 <0>         0.1315
     22 H2          6.5631   -6.7116    2.8751 H         1 <0>         0.1326
     23 C18         8.5961   -7.3414    3.2083 C.3       1 <0>        -0.1224
     24 C19         8.9471   -7.1743    1.7285 C.3       1 <0>        -0.1276
     25 C20        10.1571   -8.0472    1.3897 C.3       1 <0>         0.0916
     26 N3         10.4932   -7.8872   -0.0272 N.pl3     1 <0>        -0.6970
     27 C21        11.5477   -8.5751   -0.5619 C.cat     1 <0>         0.7429
     28 N4         11.8533   -8.4296   -1.8502 N.pl3     1 <0>        -0.7932
     29 N5         12.2690   -9.3904    0.2057 N.pl3     1 <0>        -0.7913
     30 C22         6.9645   -6.7251    4.9711 C.2       1 <0>         0.4408
     31 O2          7.2143   -5.9103    5.8336 O.2       1 <0>        -0.4061
     32 C23         6.2500   -7.9641    5.3146 C.2       1 <0>         0.0344
     33 N6          5.8970   -8.9599    4.5289 N.2       1 <0>        -0.4385
     34 C24         5.2456  -10.0365    4.9743 C.ar      1 <0>         0.0526
     35 C25         4.8121  -11.1679    4.2351 C.ar      1 <0>        -0.0425
     36 C26         4.1555  -12.1868    4.8458 C.ar      1 <0>        -0.1140
     37 C27         3.8804  -12.1683    6.2086 C.ar      1 <0>        -0.0603
     38 C28         4.2833  -11.0878    6.9675 C.ar      1 <0>        -0.0764
     39 C29         4.9500  -10.0481    6.3625 C.ar      1 <0>        -0.1269
     40 S1          5.6454   -8.5067    6.9072 S.3       1 <0>         0.0818
     41 N7          3.1688   -1.7859    2.0890 N.4       1 <0>        -0.6276
     42 H3         -0.9591    1.9053    0.0259 H         1 <0>         0.1332
     43 H4          1.1563    3.1654    0.0076 H         1 <0>         0.1332
     44 H5          3.3051    1.9634   -0.0196 H         1 <0>         0.1286
     45 H6          1.2231   -1.7588   -0.0176 H         1 <0>         0.1216
     46 H7         -0.9258   -0.5567    0.0082 H         1 <0>         0.1323
     47 H8          3.5884   -1.6586   -0.5549 H         1 <0>         0.0983
     48 H9          4.4573   -0.1052   -0.5563 H         1 <0>         0.1176
     49 H10         4.9667    1.0282    1.5517 H         1 <0>         0.1092
     50 H11         3.3323    0.8365    2.2228 H         1 <0>         0.0972
     51 H12         5.0761    1.1285    4.0073 H         1 <0>         0.1001
     52 H13         4.2379   -0.4419    4.1318 H         1 <0>         0.0746
     53 H14         6.9218    0.0168    2.7273 H         1 <0>         0.0766
     54 H15         7.5106   -0.1293    5.0768 H         1 <0>         0.0888
     55 H16         6.1505   -1.2481    5.4226 H         1 <0>         0.0845
     56 H17         8.8119   -1.8256    4.0962 H         1 <0>         0.0876
     57 H18         7.7690   -2.9202    5.0543 H         1 <0>         0.0891
     58 H19         5.3814   -2.6875    0.9040 H         1 <0>         0.1012
     59 H20         6.2502   -1.1317    0.8227 H         1 <0>         0.0831
     60 H21         8.6694   -4.7787    3.4707 H         1 <0>         0.4087
     61 H22         9.4458   -7.0378    3.8198 H         1 <0>         0.0880
     62 H23         8.3584   -8.3859    3.4097 H         1 <0>         0.1043
     63 H24         8.0974   -7.4779    1.1170 H         1 <0>         0.0891
     64 H25         9.1848   -6.1297    1.5272 H         1 <0>         0.0835
     65 H26        11.0068   -7.7435    2.0012 H         1 <0>         0.0950
     66 H27         9.9194   -9.0917    1.5910 H         1 <0>         0.0963
     67 H28         9.9680   -7.2934   -0.5862 H         1 <0>         0.4346
     68 H29        11.3280   -7.8359   -2.4092 H         1 <0>         0.4408
     69 H30        12.0464   -9.4963    1.1438 H         1 <0>         0.4399
     70 H31        13.0167   -9.8782   -0.1735 H         1 <0>         0.4427
     71 H32         5.0066  -11.2186    3.1740 H         1 <0>         0.1367
     72 H33         3.8379  -13.0347    4.2572 H         1 <0>         0.1428
     73 H34         3.3556  -12.9921    6.6695 H         1 <0>         0.1493
     74 H35         4.0765  -11.0590    8.0271 H         1 <0>         0.1433
     75 H36         3.0645   -2.6652    1.6053 H         1 <0>         0.4309
     76 H37         3.4689   -1.9570    3.0370 H         1 <0>         0.4406
     77 H38        12.6011   -8.9174   -2.2293 H         1 <0>         0.4430
     78 H39         2.2843   -1.3004    2.0986 H         1 <0>         0.4284
@<TRIPOS>BOND
     1    1    6 ar
     2    1    2 ar
     3    1   42 1
     4    2    3 ar
     5    2   43 1
     6    3    4 ar
     7    3   44 1
     8    4    5 ar
     9    4    7 1
    10    5    6 ar
    11    5   45 1
    12    6   46 1
    13    7    8 1
    14    7   47 1
    15    7   48 1
    16    8   17 1
    17    8    9 1
    18    8   41 1
    19    9   10 1
    20    9   49 1
    21    9   50 1
    22   10   11 1
    23   10   51 1
    24   10   52 1
    25   11   16 1
    26   11   12 1
    27   11   53 1
    28   12   13 1
    29   12   54 1
    30   12   55 1
    31   13   14 1
    32   13   56 1
    33   13   57 1
    34   14   15 1
    35   14   16 1
    36   14   18 1
    37   16   17 1
    38   17   58 1
    39   17   59 1
    40   18   19 2
    41   18   20 am
    42   20   21 1
    43   20   60 1
    44   21   22 1
    45   21   23 1
    46   21   30 1
    47   23   24 1
    48   23   61 1
    49   23   62 1
    50   24   25 1
    51   24   63 1
    52   24   64 1
    53   25   26 1
    54   25   65 1
    55   25   66 1
    56   26   27 1
    57   26   67 1
    58   27   28 2
    59   27   29 1
    60   28   68 1
    61   28   77 1
    62   29   69 1
    63   29   70 1
    64   30   31 2
    65   30   32 1
    66   32   40 1
    67   32   33 2
    68   33   34 1
    69   34   39 ar
    70   34   35 ar
    71   35   36 ar
    72   35   71 1
    73   36   37 ar
    74   36   72 1
    75   37   38 ar
    76   37   73 1
    77   38   39 ar
    78   38   74 1
    79   39   40 1
    80   41   75 1
    81   41   76 1
    82   41   78 1
@<TRIPOS>MOLECULE
CHEMBL27852__3
   78    82     0     0     0
SMALL
USER_CHARGES

@<TRIPOS>ATOM
      1 C1         -0.0167    1.3781    0.0096 C.ar      1 <0>        -0.1090
      2 C2          1.1709    2.0855    0.0021 C.ar      1 <0>        -0.1119
      3 C3          2.3773    1.4107   -0.0130 C.ar      1 <0>        -0.1131
      4 C4          2.3960    0.0285   -0.0201 C.ar      1 <0>        -0.1014
      5 C5          1.2084   -0.6789   -0.0117 C.ar      1 <0>        -0.1221
      6 C6          0.0021   -0.0041    0.0020 C.ar      1 <0>        -0.1105
      7 C7          3.7112   -0.7071   -0.0376 C.3       1 <0>        -0.1030
      8 C8          4.1714   -0.9633    1.3989 C.3       1 <0>         0.1068
      9 C9          4.3103    0.3725    2.1283 C.3       1 <0>        -0.1255
     10 C10         4.9295    0.1659    3.5200 C.3       1 <0>        -0.1329
     11 C11         6.2486   -0.5675    3.3280 C.3       1 <0>         0.0363
     12 C12         6.9836   -0.8928    4.6319 C.3       1 <0>        -0.1408
     13 C13         7.6586   -2.2604    4.3534 C.3       1 <0>        -0.1379
     14 C14         7.1988   -2.6486    2.9225 C.3       1 <0>         0.0052
     15 H1          7.9347   -2.3315    2.1835 H         1 <0>         0.1648
     16 N1          5.9406   -1.9045    2.7533 N.4       1 <0>        -0.3722
     17 C15         5.5119   -1.7131    1.3742 C.3       1 <0>         0.0108
     18 C16         6.9584   -4.1332    2.8266 C.2       1 <0>         0.5146
     19 O1          5.8534   -4.5522    2.5540 O.2       1 <0>        -0.5070
     20 N2          7.9713   -4.9953    3.0437 N.am      1 <0>        -0.6970
     21 C17         7.7376   -6.4385    2.9505 C.3       1 <0>         0.1274
     22 H2          7.0073   -6.6384    2.1664 H         1 <0>         0.1396
     23 C18         9.0517   -7.1474    2.6163 C.3       1 <0>        -0.1231
     24 C19         9.5204   -6.7225    1.2232 C.3       1 <0>        -0.1293
     25 C20        10.8344   -7.4313    0.8890 C.3       1 <0>         0.0917
     26 N3         11.2832   -7.0245   -0.4449 N.pl3     1 <0>        -0.6984
     27 C21        12.4436   -7.5330   -0.9608 C.cat     1 <0>         0.7435
     28 N4         12.8516   -7.1631   -2.1735 N.pl3     1 <0>        -0.7922
     29 N5         13.1654   -8.3981   -0.2504 N.pl3     1 <0>        -0.7909
     30 C22         7.2127   -6.9485    4.2678 C.2       1 <0>         0.4445
     31 O2          7.3027   -6.2617    5.2631 O.2       1 <0>        -0.4093
     32 C23         6.5912   -8.2793    4.3463 C.2       1 <0>         0.0241
     33 N6          6.4092   -9.1646    3.3888 N.2       1 <0>        -0.4350
     34 C24         5.8252  -10.3464    3.5982 C.ar      1 <0>         0.0509
     35 C25         5.5720  -11.3790    2.6578 C.ar      1 <0>        -0.0405
     36 C26         4.9622  -12.5304    3.0377 C.ar      1 <0>        -0.1138
     37 C27         4.5618  -12.7483    4.3513 C.ar      1 <0>        -0.0564
     38 C28         4.7877  -11.7714    5.3003 C.ar      1 <0>        -0.0775
     39 C29         5.4050  -10.5996    4.9302 C.ar      1 <0>        -0.1243
     40 S1          5.8966   -9.1120    5.7678 S.3       1 <0>         0.0894
     41 N7          3.1692   -1.7873    2.0878 N.3       1 <0>        -0.8497
     42 H3         -0.9591    1.9053    0.0259 H         1 <0>         0.1286
     43 H4          1.1563    3.1654    0.0076 H         1 <0>         0.1280
     44 H5          3.3051    1.9634   -0.0196 H         1 <0>         0.1217
     45 H6          1.2231   -1.7588   -0.0176 H         1 <0>         0.1186
     46 H7         -0.9258   -0.5567    0.0082 H         1 <0>         0.1276
     47 H8          3.5884   -1.6586   -0.5549 H         1 <0>         0.0821
     48 H9          4.4573   -0.1052   -0.5563 H         1 <0>         0.0861
     49 H10         4.9495    1.0356    1.5453 H         1 <0>         0.0856
     50 H11         3.3256    0.8270    2.2367 H         1 <0>         0.1008
     51 H12         5.1080    1.1315    3.9930 H         1 <0>         0.1148
     52 H13         4.2599   -0.4321    4.1382 H         1 <0>         0.0999
     53 H14         6.8915   -0.0076    2.6488 H         1 <0>         0.1402
     54 H15         7.7349   -0.1328    4.8466 H         1 <0>         0.1210
     55 H16         6.2771   -0.9768    5.4577 H         1 <0>         0.1067
     56 H17         8.7435   -2.1620    4.3893 H         1 <0>         0.1216
     57 H18         7.3204   -3.0041    5.0750 H         1 <0>         0.1086
     58 H19         5.3845   -2.6811    0.8896 H         1 <0>         0.1295
     59 H20         6.2542   -1.1245    0.8352 H         1 <0>         0.1315
     60 H21         8.8551   -4.6602    3.2617 H         1 <0>         0.4148
     61 H22         9.8083   -6.8763    3.3526 H         1 <0>         0.0909
     62 H23         8.8973   -8.2263    2.6343 H         1 <0>         0.1095
     63 H24         8.7638   -6.9936    0.4869 H         1 <0>         0.0913
     64 H25         9.6748   -5.6436    1.2052 H         1 <0>         0.0822
     65 H26        11.5910   -7.1603    1.6253 H         1 <0>         0.0953
     66 H27        10.6800   -8.5102    0.9070 H         1 <0>         0.0972
     67 H28        10.7576   -6.3944   -0.9623 H         1 <0>         0.4347
     68 H29        12.3260   -6.5330   -2.6909 H         1 <0>         0.4411
     69 H30        12.8682   -8.6675    0.6328 H         1 <0>         0.4398
     70 H31        13.9882   -8.7587   -0.6162 H         1 <0>         0.4432
     71 H32         5.8678  -11.2467    1.6276 H         1 <0>         0.1375
     72 H33         4.7829  -13.2982    2.2997 H         1 <0>         0.1439
     73 H34         4.0777  -13.6736    4.6268 H         1 <0>         0.1504
     74 H35         4.4820  -11.9260    6.3245 H         1 <0>         0.1443
     75 H36         2.2734   -1.3234    2.1105 H         1 <0>         0.3700
     76 H37         3.0940   -2.6981    1.6602 H         1 <0>         0.3522
     77 H38        13.6744   -7.5237   -2.5393 H         1 <0>         0.4436
     78 H39         5.2070   -2.3461    3.2870 H         1 <0>         0.4405
@<TRIPOS>BOND
     1    1    6 ar
     2    1    2 ar
     3    1   42 1
     4    2    3 ar
     5    2   43 1
     6    3    4 ar
     7    3   44 1
     8    4    5 ar
     9    4    7 1
    10    5    6 ar
    11    5   45 1
    12    6   46 1
    13    7    8 1
    14    7   47 1
    15    7   48 1
    16    8   17 1
    17    8    9 1
    18    8   41 1
    19    9   10 1
    20    9   49 1
    21    9   50 1
    22   10   11 1
    23   10   51 1
    24   10   52 1
    25   11   16 1
    26   11   12 1
    27   11   53 1
    28   12   13 1
    29   12   54 1
    30   12   55 1
    31   13   14 1
    32   13   56 1
    33   13   57 1
    34   14   15 1
    35   14   16 1
    36   14   18 1
    37   16   17 1
    38   16   78 1
    39   17   58 1
    40   17   59 1
    41   18   19 2
    42   18   20 am
    43   20   21 1
    44   20   60 1
    45   21   22 1
    46   21   23 1
    47   21   30 1
    48   23   24 1
    49   23   61 1
    50   23   62 1
    51   24   25 1
    52   24   63 1
    53   24   64 1
    54   25   26 1
    55   25   65 1
    56   25   66 1
    57   26   27 1
    58   26   67 1
    59   27   28 2
    60   27   29 1
    61   28   68 1
    62   28   77 1
    63   29   69 1
    64   29   70 1
    65   30   31 2
    66   30   32 1
    67   32   40 1
    68   32   33 2
    69   33   34 1
    70   34   39 ar
    71   34   35 ar
    72   35   36 ar
    73   35   71 1
    74   36   37 ar
    75   36   72 1
    76   37   38 ar
    77   37   73 1
    78   38   39 ar
    79   38   74 1
    80   39   40 1
    81   41   75 1
    82   41   76 1
@<TRIPOS>MOLECULE
CHEMBL284436
   66    68     0     0     0
SMALL
USER_CHARGES

@<TRIPOS>ATOM
      1 C1         -0.0167    1.3781    0.0096 C.ar      1 <0>        -0.0998
      2 C2          1.1709    2.0855    0.0021 C.ar      1 <0>        -0.1046
      3 C3          2.3773    1.4107   -0.0130 C.ar      1 <0>        -0.1045
      4 C4          2.3960    0.0285   -0.0201 C.ar      1 <0>        -0.1303
      5 C5          1.2084   -0.6789   -0.0117 C.ar      1 <0>        -0.1411
      6 C6          0.0021   -0.0041    0.0020 C.ar      1 <0>        -0.1056
      7 C7          3.7112   -0.7071   -0.0376 C.3       1 <0>        -0.0870
      8 C8          4.1714   -0.9633    1.3989 C.3       1 <0>         0.0785
      9 C9          4.3708    0.3738    2.1235 C.3       1 <0>        -0.1796
     10 C10         4.8462    0.0771    3.5472 C.3       1 <0>         0.0360
     11 N1          6.0526   -0.7268    3.5394 N.3       1 <0>        -0.3498
     12 C11         7.2394   -0.0198    3.0126 C.3       1 <0>         0.0027
     13 C12         8.2535   -1.1710    2.7987 C.3       1 <0>        -0.1394
     14 C13         7.3799   -2.4381    2.6816 C.3       1 <0>         0.0455
     15 H1          7.5580   -2.9323    1.7265 H         1 <0>         0.1112
     16 N2          5.9710   -1.9575    2.7589 N.3       1 <0>        -0.3077
     17 C14         5.5047   -1.7091    1.3867 C.3       1 <0>        -0.0316
     18 C15         7.6743   -3.3817    3.8191 C.2       1 <0>         0.5281
     19 O1          6.7977   -3.6790    4.6027 O.2       1 <0>        -0.4764
     20 N3          8.9118   -3.8952    3.9657 N.am      1 <0>        -0.7344
     21 C16         9.1980   -4.8124    5.0716 C.3       1 <0>         0.1456
     22 H2          8.3220   -5.4312    5.2664 H         1 <0>         0.1044
     23 C17        10.3817   -5.7072    4.6987 C.3       1 <0>        -0.1282
     24 C18         9.9930   -6.6025    3.5204 C.3       1 <0>        -0.1298
     25 C19        11.1767   -7.4973    3.1475 C.3       1 <0>         0.0916
     26 N4         10.8045   -8.3545    2.0194 N.pl3     1 <0>        -0.6974
     27 C20        11.7093   -9.2445    1.5090 C.cat     1 <0>         0.7423
     28 N5         11.3708  -10.0239    0.4833 N.pl3     1 <0>        -0.7934
     29 N6         12.9287   -9.3316    2.0377 N.pl3     1 <0>        -0.7914
     30 C21         9.5427   -4.0071    6.3260 C.3       1 <0>        -0.0653
     31 Cl1         8.1477   -2.9527    6.7654 Cl        1 <0>        -0.1443
     32 N7          3.1631   -1.7642    2.1058 N.4       1 <0>        -0.6293
     33 H3         -0.9591    1.9053    0.0259 H         1 <0>         0.1343
     34 H4          1.1563    3.1654    0.0076 H         1 <0>         0.1339
     35 H5          3.3051    1.9634   -0.0196 H         1 <0>         0.1277
     36 H6          1.2231   -1.7588   -0.0176 H         1 <0>         0.1224
     37 H7         -0.9258   -0.5567    0.0082 H         1 <0>         0.1335
     38 H8          3.5884   -1.6586   -0.5549 H         1 <0>         0.1007
     39 H9          4.4573   -0.1052   -0.5563 H         1 <0>         0.1169
     40 H10         5.1211    0.9672    1.6011 H         1 <0>         0.1118
     41 H11         3.4273    0.9188    2.1567 H         1 <0>         0.1102
     42 H12         5.0468    1.0176    4.0603 H         1 <0>         0.1154
     43 H13         4.0623   -0.4601    4.0811 H         1 <0>         0.0872
     44 H14         7.0084    0.4724    2.0679 H         1 <0>         0.0575
     45 H15         7.6170    0.6976    3.7412 H         1 <0>         0.1101
     46 H16         8.8202   -1.0134    1.8810 H         1 <0>         0.0900
     47 H17         8.9256   -1.2498    3.6532 H         1 <0>         0.0952
     48 H18         5.3790   -2.6616    0.8719 H         1 <0>         0.1131
     49 H19         6.2465   -1.1106    0.8578 H         1 <0>         0.0913
     50 H20         9.6129   -3.6574    3.3390 H         1 <0>         0.3981
     51 H21        11.2323   -5.0861    4.4179 H         1 <0>         0.0830
     52 H22        10.6514   -6.3279    5.5531 H         1 <0>         0.0949
     53 H23         9.1424   -7.2236    3.8012 H         1 <0>         0.0855
     54 H24         9.7233   -5.9818    2.6659 H         1 <0>         0.0814
     55 H25        12.0273   -6.8762    2.8668 H         1 <0>         0.0933
     56 H26        11.4464   -8.1179    4.0020 H         1 <0>         0.0948
     57 H27         9.9165   -8.2911    1.6343 H         1 <0>         0.4346
     58 H28        10.4828   -9.9604    0.0982 H         1 <0>         0.4407
     59 H29        13.1751   -8.7640    2.7847 H         1 <0>         0.4399
     60 H30        13.5703   -9.9627    1.6757 H         1 <0>         0.4426
     61 H31         9.7556   -4.6896    7.1488 H         1 <0>         0.1024
     62 H32        10.4186   -3.3883    6.1312 H         1 <0>         0.0934
     63 H33         3.0409   -2.6462    1.6313 H         1 <0>         0.4326
     64 H34         3.4695   -1.9313    3.0526 H         1 <0>         0.4413
     65 H35        12.0124  -10.6550    0.1213 H         1 <0>         0.4429
     66 H36         2.2862   -1.2653    2.1193 H         1 <0>         0.4323
@<TRIPOS>BOND
     1    1    6 ar
     2    1    2 ar
     3    1   33 1
     4    2    3 ar
     5    2   34 1
     6    3    4 ar
     7    3   35 1
     8    4    5 ar
     9    4    7 1
    10    5    6 ar
    11    5   36 1
    12    6   37 1
    13    7    8 1
    14    7   38 1
    15    7   39 1
    16    8   17 1
    17    8    9 1
    18    8   32 1
    19    9   10 1
    20    9   40 1
    21    9   41 1
    22   10   11 1
    23   10   42 1
    24   10   43 1
    25   11   16 1
    26   11   12 1
    27   12   13 1
    28   12   44 1
    29   12   45 1
    30   13   14 1
    31   13   46 1
    32   13   47 1
    33   14   15 1
    34   14   16 1
    35   14   18 1
    36   16   17 1
    37   17   48 1
    38   17   49 1
    39   18   19 2
    40   18   20 am
    41   20   21 1
    42   20   50 1
    43   21   22 1
    44   21   23 1
    45   21   30 1
    46   23   24 1
    47   23   51 1
    48   23   52 1
    49   24   25 1
    50   24   53 1
    51   24   54 1
    52   25   26 1
    53   25   55 1
    54   25   56 1
    55   26   27 1
    56   26   57 1
    57   27   28 2
    58   27   29 1
    59   28   58 1
    60   28   65 1
    61   29   59 1
    62   29   60 1
    63   30   31 1
    64   30   61 1
    65   30   62 1
    66   32   63 1
    67   32   64 1
    68   32   66 1
@<TRIPOS>MOLECULE
CHEMBL390662
   55    58     0     0     0
SMALL
USER_CHARGES

@<TRIPOS>ATOM
      1 C1         -0.1286    1.9170    1.7173 C.ar      1 <0>        -0.1098
      2 C2          1.0714    2.6031    1.7274 C.ar      1 <0>        -0.1211
      3 C3          2.2531    1.9327    1.4725 C.ar      1 <0>        -0.0997
      4 C4          2.2348    0.5760    1.2079 C.ar      1 <0>        -0.1128
      5 C5          1.0349   -0.1103    1.1986 C.ar      1 <0>        -0.0992
      6 C6         -0.1469    0.5604    1.4521 C.ar      1 <0>        -0.1214
      7 C7          3.5230   -0.1547    0.9290 C.3       1 <0>         0.1633
      8 N1          4.0820   -0.6564    2.1868 N.am      1 <0>        -0.7200
      9 C8          5.2399   -1.3461    2.1820 C.2       1 <0>         0.5063
     10 O1          5.8190   -1.5515    1.1364 O.2       1 <0>        -0.5200
     11 C9          5.8149   -1.8622    3.4759 C.3       1 <0>         0.0774
     12 N2          7.0672   -2.5726    3.2048 N.am      1 <0>        -0.4534
     13 C10         7.0756   -3.9375    3.0569 C.2       1 <0>         0.1004
     14 C11         8.2517   -4.6035    2.8020 C.2       1 <0>         0.1176
     15 N3          9.4060   -3.9530    2.6922 N.2       1 <0>        -0.4975
     16 C12         9.4604   -2.6436    2.8243 C.2       1 <0>         0.3735
     17 C13         8.2299   -1.8932    3.0910 C.2       1 <0>         0.4967
     18 O2          8.2555   -0.6800    3.2124 O.2       1 <0>        -0.5186
     19 N4         10.6733   -1.9788    2.7069 N.pl3     1 <0>        -0.6720
     20 C14        11.8991   -2.7336    2.4351 C.3       1 <0>         0.1318
     21 C15        12.8428   -2.8323    3.6453 C.3       1 <0>        -0.1532
     22 C16        14.0031   -2.6232    2.6579 C.3       1 <0>        -0.1389
     23 C17        12.9950   -1.9020    1.7478 C.3       1 <0>        -0.1493
     24 Cl1         8.2286   -6.3298    2.6203 Cl        1 <0>        -0.0079
     25 C18         5.8136   -4.6957    3.1729 C.ar      1 <0>        -0.0142
     26 C19         4.7309   -4.3857    2.3459 C.ar      1 <0>        -0.1597
     27 C20         3.5532   -5.0956    2.4565 C.ar      1 <0>        -0.0687
     28 C21         3.4389   -6.1147    3.3839 C.ar      1 <0>        -0.1813
     29 C22         4.5100   -6.4312    4.2116 C.ar      1 <0>         0.2183
     30 C23         5.7001   -5.7280    4.1049 C.ar      1 <0>        -0.1576
     31 N5          4.3890   -7.4615    5.1473 N.pl3     1 <0>        -0.8765
     32 H1         -1.0513    2.4399    1.9208 H         1 <0>         0.1242
     33 H2          1.0857    3.6630    1.9342 H         1 <0>         0.1251
     34 H3          3.1906    2.4688    1.4798 H         1 <0>         0.1243
     35 H4          1.0206   -1.1702    0.9915 H         1 <0>         0.1245
     36 H5         -1.0844    0.0243    1.4445 H         1 <0>         0.1251
     37 H6          3.3281   -0.9918    0.2586 H         1 <0>         0.0793
     38 H7          4.2337    0.5270    0.4619 H         1 <0>         0.0785
     39 H8          3.6188   -0.4922    3.0231 H         1 <0>         0.4043
     40 H9          6.0098   -1.0252    4.1463 H         1 <0>         0.1292
     41 H10         5.1042   -2.5440    3.9430 H         1 <0>         0.1315
     42 H11        10.7092   -1.0144    2.8048 H         1 <0>         0.4188
     43 H12        11.7080   -3.6906    1.9495 H         1 <0>         0.1224
     44 H13        12.7245   -2.0169    4.3589 H         1 <0>         0.0835
     45 H14        12.8441   -3.8139    4.1190 H         1 <0>         0.0740
     46 H15        14.7897   -1.9726    3.0400 H         1 <0>         0.0745
     47 H16        14.3883   -3.5507    2.2341 H         1 <0>         0.0856
     48 H17        13.1191   -2.1327    0.6898 H         1 <0>         0.0767
     49 H18        12.9182   -0.8323    1.9427 H         1 <0>         0.0861
     50 H19         4.8160   -3.5902    1.6204 H         1 <0>         0.1239
     51 H20         2.7174   -4.8542    1.8165 H         1 <0>         0.1255
     52 H21         2.5142   -6.6665    3.4658 H         1 <0>         0.1235
     53 H22         6.5350   -5.9755    4.7437 H         1 <0>         0.1268
     54 H23         3.5576   -7.9560    5.2194 H         1 <0>         0.4002
     55 H24         5.1363   -7.6824    5.7248 H         1 <0>         0.3999
@<TRIPOS>BOND
     1    1    6 ar
     2    1    2 ar
     3    1   32 1
     4    2    3 ar
     5    2   33 1
     6    3    4 ar
     7    3   34 1
     8    4    5 ar
     9    4    7 1
    10    5    6 ar
    11    5   35 1
    12    6   36 1
    13    7    8 1
    14    7   37 1
    15    7   38 1
    16    8    9 am
    17    8   39 1
    18    9   10 2
    19    9   11 1
    20   11   12 1
    21   11   40 1
    22   11   41 1
    23   12   17 am
    24   12   13 1
    25   13   14 2
    26   13   25 1
    27   14   15 1
    28   14   24 1
    29   15   16 2
    30   16   17 1
    31   16   19 1
    32   17   18 2
    33   19   20 1
    34   19   42 1
    35   20   23 1
    36   20   21 1
    37   20   43 1
    38   21   22 1
    39   21   44 1
    40   21   45 1
    41   22   23 1
    42   22   46 1
    43   22   47 1
    44   23   48 1
    45   23   49 1
    46   25   30 ar
    47   25   26 ar
    48   26   27 ar
    49   26   50 1
    50   27   28 ar
    51   27   51 1
    52   28   29 ar
    53   28   52 1
    54   29   30 ar
    55   29   31 1
    56   30   53 1
    57   31   54 1
    58   31   55 1
@<TRIPOS>MOLECULE
CHEMBL382278
   52    54     0     0     0
SMALL
USER_CHARGES

@<TRIPOS>ATOM
      1 C1         -0.0021   -1.1314    0.6300 C.1       1 <0>        -0.1721
      2 C2         -0.0121    0.0288    0.4510 C.1       1 <0>        -0.1479
      3 C3         -0.0243    1.4440    0.2327 C.ar      1 <0>         0.0499
      4 C4         -1.2339    2.1115    0.0339 C.ar      1 <0>        -0.1208
      5 C5         -1.2422    3.4753   -0.1756 C.ar      1 <0>        -0.0287
      6 C6         -0.0551    4.1841   -0.1895 C.ar      1 <0>        -0.1247
      7 C7          1.1526    3.5286    0.0068 C.ar      1 <0>         0.1359
      8 C8          1.1716    2.1608    0.2237 C.ar      1 <0>        -0.1914
      9 O1          2.3166    4.2301   -0.0087 O.3       1 <0>        -0.3025
     10 C9          3.5285    3.4782    0.0804 C.3       1 <0>         0.0844
     11 C10         3.8588    3.2111    1.5521 C.3       1 <0>        -0.1856
     12 C11         5.1977    2.4743    1.6409 C.3       1 <0>         0.0646
     13 O2          6.2128    3.2555    1.0073 O.3       1 <0>        -0.3794
     14 C12         5.9811    3.4971   -0.3820 C.3       1 <0>         0.0646
     15 C13         4.6736    4.2750   -0.5521 C.3       1 <0>        -0.1517
     16 C14        -2.5491    4.1943   -0.3906 C.3       1 <0>         0.0982
     17 C15        -3.2165    4.4316    0.9395 C.2       1 <0>         0.4939
     18 O3         -2.9897    5.4556    1.5613 O.co2     1 <0>        -0.6708
     19 O4         -3.9833    3.5997    1.3939 O.co2     1 <0>        -0.6676
     20 N1         -3.4227    3.3773   -1.2364 N.pl3     1 <0>        -0.6608
     21 C16        -4.4197    3.9817   -1.9951 C.ar      1 <0>         0.3055
     22 C17        -4.5825    5.3634   -1.9540 C.ar      1 <0>        -0.1973
     23 C18        -5.5680    5.9642   -2.7040 C.ar      1 <0>        -0.0010
     24 C19        -6.4053    5.1857   -3.5071 C.ar      1 <0>        -0.2542
     25 C20        -6.2396    3.7989   -3.5464 C.ar      1 <0>        -0.0026
     26 C21        -5.2490    3.2041   -2.7983 C.ar      1 <0>        -0.2060
     27 C22        -7.4638    5.8273   -4.3126 C.cat     1 <0>         0.6022
     28 N2         -8.2618    5.0835   -5.0782 N.pl3     1 <0>        -0.7829
     29 N3         -7.6211    7.1502   -4.2739 N.pl3     1 <0>        -0.7809
     30 H1          0.0068   -2.1691    0.7900 H         1 <0>         0.2257
     31 H2         -2.1629    1.5608    0.0438 H         1 <0>         0.1282
     32 H3         -0.0675    5.2514   -0.3540 H         1 <0>         0.1376
     33 H4          2.1102    1.6504    0.3814 H         1 <0>         0.1322
     34 H5          3.4093    2.5309   -0.4456 H         1 <0>         0.0747
     35 H6          3.9279    4.1580    2.0875 H         1 <0>         0.0876
     36 H7          3.0750    2.5972    1.9957 H         1 <0>         0.0826
     37 H8          5.4587    2.3194    2.6878 H         1 <0>         0.1019
     38 H9          5.1157    1.5096    1.1400 H         1 <0>         0.0527
     39 H10         6.8064    4.0790   -0.7923 H         1 <0>         0.1039
     40 H11         5.9093    2.5458   -0.9093 H         1 <0>         0.0534
     41 H12         4.4725    4.4219   -1.6133 H         1 <0>         0.0840
     42 H13         4.7592    5.2434   -0.0592 H         1 <0>         0.0864
     43 H14        -2.3616    5.1507   -0.8788 H         1 <0>         0.0990
     44 H15        -3.3058    2.4148   -1.2675 H         1 <0>         0.4077
     45 H16        -3.9352    5.9646   -1.3328 H         1 <0>         0.1470
     46 H17        -5.6941    7.0364   -2.6715 H         1 <0>         0.1294
     47 H18        -6.8856    3.1947   -4.1660 H         1 <0>         0.1282
     48 H19        -5.1175    2.1327   -2.8317 H         1 <0>         0.1393
     49 H20        -8.1474    4.1207   -5.1064 H         1 <0>         0.4392
     50 H21        -7.0403    7.6916   -3.7166 H         1 <0>         0.4409
     51 H22        -8.3164    7.5717   -4.8029 H         1 <0>         0.4242
     52 H23        -8.9571    5.5050   -5.6072 H         1 <0>         0.4240
@<TRIPOS>BOND
     1    1    2 3
     2    1   30 1
     3    2    3 1
     4    3    8 ar
     5    3    4 ar
     6    4    5 ar
     7    4   31 1
     8    5    6 ar
     9    5   16 1
    10    6    7 ar
    11    6   32 1
    12    7    8 ar
    13    7    9 1
    14    8   33 1
    15    9   10 1
    16   10   15 1
    17   10   11 1
    18   10   34 1
    19   11   12 1
    20   11   35 1
    21   11   36 1
    22   12   13 1
    23   12   37 1
    24   12   38 1
    25   13   14 1
    26   14   15 1
    27   14   39 1
    28   14   40 1
    29   15   41 1
    30   15   42 1
    31   16   17 1
    32   16   20 1
    33   16   43 1
    34   17   18 2
    35   17   19 1
    36   20   21 1
    37   20   44 1
    38   21   26 ar
    39   21   22 ar
    40   22   23 ar
    41   22   45 1
    42   23   24 ar
    43   23   46 1
    44   24   25 ar
    45   24   27 1
    46   25   26 ar
    47   25   47 1
    48   26   48 1
    49   27   28 2
    50   27   29 1
    51   28   49 1
    52   28   52 1
    53   29   50 1
    54   29   51 1
@<TRIPOS>MOLECULE
CHEMBL382278__1
   52    54     0     0     0
SMALL
USER_CHARGES

@<TRIPOS>ATOM
      1 C1         -0.0021   -1.1314    0.6300 C.1       1 <0>        -0.1723
      2 C2         -0.0121    0.0288    0.4510 C.1       1 <0>        -0.1481
      3 C3         -0.0243    1.4440    0.2327 C.ar      1 <0>         0.0506
      4 C4         -1.2339    2.1115    0.0339 C.ar      1 <0>        -0.1268
      5 C5         -1.2422    3.4753   -0.1756 C.ar      1 <0>        -0.0239
      6 C6         -0.0551    4.1841   -0.1895 C.ar      1 <0>        -0.1204
      7 C7          1.1526    3.5286    0.0068 C.ar      1 <0>         0.1368
      8 C8          1.1716    2.1608    0.2237 C.ar      1 <0>        -0.1919
      9 O1          2.3166    4.2301   -0.0087 O.3       1 <0>        -0.3024
     10 C9          3.5285    3.4782    0.0804 C.3       1 <0>         0.0835
     11 C10         3.8588    3.2111    1.5521 C.3       1 <0>        -0.1829
     12 C11         5.1977    2.4743    1.6409 C.3       1 <0>         0.0639
     13 O2          6.2128    3.2555    1.0073 O.3       1 <0>        -0.3799
     14 C12         5.9811    3.4971   -0.3820 C.3       1 <0>         0.0642
     15 C13         4.6736    4.2750   -0.5521 C.3       1 <0>        -0.1524
     16 C14        -2.5491    4.1943   -0.3906 C.3       1 <0>         0.0967
     17 C15        -2.9955    4.0092   -1.8180 C.2       1 <0>         0.4927
     18 O3         -3.9644    3.3128   -2.0683 O.co2     1 <0>        -0.6690
     19 O4         -2.3876    4.5558   -2.7226 O.co2     1 <0>        -0.6683
     20 N1         -3.5629    3.6453    0.5132 N.pl3     1 <0>        -0.6594
     21 C16        -4.6513    4.4241    0.8928 C.ar      1 <0>         0.3116
     22 C17        -4.7787    5.7228    0.4086 C.ar      1 <0>        -0.1948
     23 C18        -5.8548    6.4956    0.7821 C.ar      1 <0>        -0.0017
     24 C19        -6.8197    5.9751    1.6483 C.ar      1 <0>        -0.2549
     25 C20        -6.6892    4.6711    2.1328 C.ar      1 <0>        -0.0024
     26 C21        -5.6138    3.9012    1.7516 C.ar      1 <0>        -0.2061
     27 C22        -7.9751    6.8019    2.0512 C.cat     1 <0>         0.6020
     28 N2         -8.8948    6.3042    2.8775 N.pl3     1 <0>        -0.7832
     29 N3         -8.0981    8.0457    1.5886 N.pl3     1 <0>        -0.7814
     30 H1          0.0068   -2.1691    0.7900 H         1 <0>         0.2257
     31 H2         -2.1629    1.5608    0.0438 H         1 <0>         0.1258
     32 H3         -0.0675    5.2514   -0.3540 H         1 <0>         0.1371
     33 H4          2.1102    1.6504    0.3814 H         1 <0>         0.1320
     34 H5          3.4093    2.5309   -0.4456 H         1 <0>         0.0758
     35 H6          3.9279    4.1580    2.0875 H         1 <0>         0.0856
     36 H7          3.0750    2.5972    1.9957 H         1 <0>         0.0809
     37 H8          5.4587    2.3194    2.6878 H         1 <0>         0.1007
     38 H9          5.1157    1.5096    1.1400 H         1 <0>         0.0531
     39 H10         6.8064    4.0790   -0.7923 H         1 <0>         0.1047
     40 H11         5.9093    2.5458   -0.9093 H         1 <0>         0.0547
     41 H12         4.4725    4.4219   -1.6133 H         1 <0>         0.0866
     42 H13         4.7592    5.2434   -0.0592 H         1 <0>         0.0856
     43 H14        -2.4171    5.2568   -0.1861 H         1 <0>         0.0992
     44 H15        -3.4753    2.7388    0.8470 H         1 <0>         0.4066
     45 H16        -4.0323    6.1247   -0.2606 H         1 <0>         0.1433
     46 H17        -5.9529    7.5033    0.4063 H         1 <0>         0.1287
     47 H18        -7.4334    4.2664    2.8027 H         1 <0>         0.1278
     48 H19        -5.5147    2.8916    2.1223 H         1 <0>         0.1388
     49 H20        -8.8053    5.3989    3.2142 H         1 <0>         0.4392
     50 H21        -7.4287    8.4080    0.9873 H         1 <0>         0.4406
     51 H22        -8.8570    8.5888    1.8533 H         1 <0>         0.4240
     52 H23        -9.6537    6.8472    3.1422 H         1 <0>         0.4238
@<TRIPOS>BOND
     1    1    2 3
     2    1   30 1
     3    2    3 1
     4    3    8 ar
     5    3    4 ar
     6    4    5 ar
     7    4   31 1
     8    5    6 ar
     9    5   16 1
    10    6    7 ar
    11    6   32 1
    12    7    8 ar
    13    7    9 1
    14    8   33 1
    15    9   10 1
    16   10   15 1
    17   10   11 1
    18   10   34 1
    19   11   12 1
    20   11   35 1
    21   11   36 1
    22   12   13 1
    23   12   37 1
    24   12   38 1
    25   13   14 1
    26   14   15 1
    27   14   39 1
    28   14   40 1
    29   15   41 1
    30   15   42 1
    31   16   17 1
    32   16   20 1
    33   16   43 1
    34   17   18 2
    35   17   19 1
    36   20   21 1
    37   20   44 1
    38   21   26 ar
    39   21   22 ar
    40   22   23 ar
    41   22   45 1
    42   23   24 ar
    43   23   46 1
    44   24   25 ar
    45   24   27 1
    46   25   26 ar
    47   25   47 1
    48   26   48 1
    49   27   28 2
    50   27   29 1
    51   28   49 1
    52   28   52 1
    53   29   50 1
    54   29   51 1
@<TRIPOS>MOLECULE
CHEMBL125781
   61    63     0     0     0
SMALL
USER_CHARGES

@<TRIPOS>ATOM
      1 C1         -0.0187    1.5258    0.0104 C.3       1 <0>        -0.1711
      2 C2          0.0021   -0.0041    0.0020 C.3       1 <0>         0.1420
      3 C3          0.7421   -0.5109    1.2415 C.3       1 <0>        -0.1624
      4 N1         -1.3723   -0.5112    0.0124 N.pl3     1 <0>        -0.7367
      5 C4         -2.0757   -0.6475   -1.1871 C.ar      1 <0>         0.2011
      6 C5         -1.4690   -0.3074   -2.3898 C.ar      1 <0>        -0.1719
      7 C6         -2.1612   -0.4407   -3.5750 C.ar      1 <0>        -0.0586
      8 C7         -3.4710   -0.9175   -3.5671 C.ar      1 <0>        -0.0723
      9 C8         -4.0793   -1.2592   -2.3601 C.ar      1 <0>        -0.0420
     10 C9         -3.3815   -1.1294   -1.1763 C.ar      1 <0>         0.0300
     11 F1         -3.9678   -1.4653   -0.0064 F         1 <0>        -0.1429
     12 C10        -5.4954   -1.7746   -2.3485 C.3       1 <0>        -0.1039
     13 C11        -5.4846   -3.2760   -2.4776 C.2       1 <0>         0.5266
     14 O1         -4.4308   -3.8691   -2.5700 O.2       1 <0>        -0.5130
     15 N2         -6.6460   -3.9596   -2.4904 N.am      1 <0>        -0.7342
     16 C12        -6.6355   -5.4192   -2.6160 C.3       1 <0>         0.1457
     17 C13        -8.0516   -5.9346   -2.6043 C.ar      1 <0>        -0.0348
     18 C14        -8.6537   -6.2672   -1.4040 C.ar      1 <0>        -0.0962
     19 C15        -9.9498   -6.7400   -1.3866 C.ar      1 <0>        -0.0577
     20 C16       -10.6534   -6.8820   -2.5830 C.ar      1 <0>        -0.1520
     21 C17       -10.0408   -6.5444   -3.7901 C.ar      1 <0>        -0.0576
     22 C18        -8.7460   -6.0677   -3.7935 C.ar      1 <0>        -0.0955
     23 C19       -12.0436   -7.3889   -2.5716 C.cat     1 <0>         0.6004
     24 N3        -12.7125   -7.5233   -3.7149 N.pl3     1 <0>        -0.7610
     25 N4        -12.6254   -7.7107   -1.4181 N.pl3     1 <0>        -0.7610
     26 C20        -4.2169   -1.0609   -4.8414 C.ar      1 <0>         0.0132
     27 C21        -4.8750   -2.2543   -5.1356 C.ar      1 <0>        -0.1825
     28 C22        -5.5682   -2.3865   -6.3220 C.ar      1 <0>        -0.0717
     29 C23        -5.6132   -1.3380   -7.2215 C.ar      1 <0>        -0.1999
     30 C24        -4.9603   -0.1448   -6.9367 C.ar      1 <0>         0.2201
     31 C25        -4.2663   -0.0021   -5.7441 C.ar      1 <0>        -0.1852
     32 N5         -5.0072    0.9123   -7.8486 N.pl3     1 <0>        -0.8784
     33 H1          1.0039    1.9031    0.0027 H         1 <0>         0.0675
     34 H2         -0.5459    1.8868   -0.8726 H         1 <0>         0.0598
     35 H3         -0.5289    1.8773    0.9072 H         1 <0>         0.0591
     36 H4          0.5123   -0.3556   -0.8948 H         1 <0>         0.0822
     37 H5          0.2319   -0.1594    2.1383 H         1 <0>         0.0614
     38 H6          0.7568   -1.6008    1.2356 H         1 <0>         0.0625
     39 H7          1.7647   -0.1336    1.2338 H         1 <0>         0.0752
     40 H8         -1.7940   -0.7522    0.8520 H         1 <0>         0.4024
     41 H9         -0.4542    0.0622   -2.3965 H         1 <0>         0.1353
     42 H10        -1.6888   -0.1752   -4.5092 H         1 <0>         0.1314
     43 H11        -5.9765   -1.4939   -1.4115 H         1 <0>         0.1053
     44 H12        -6.0463   -1.3420   -3.1836 H         1 <0>         0.1154
     45 H13        -7.4889   -3.4852   -2.4165 H         1 <0>         0.4027
     46 H14        -6.1544   -5.6998   -3.5530 H         1 <0>         0.0901
     47 H15        -6.0846   -5.8517   -1.7809 H         1 <0>         0.0893
     48 H16        -8.1079   -6.1569   -0.4786 H         1 <0>         0.1511
     49 H17       -10.4185   -7.0000   -0.4490 H         1 <0>         0.1401
     50 H18       -10.5802   -6.6523   -4.7195 H         1 <0>         0.1403
     51 H19        -8.2720   -5.8022   -4.7269 H         1 <0>         0.1517
     52 H20       -12.2886   -7.2889   -4.5553 H         1 <0>         0.4445
     53 H21       -12.1380   -7.6128   -0.5851 H         1 <0>         0.4446
     54 H22       -13.5367   -8.0431   -1.4106 H         1 <0>         0.4342
     55 H23        -4.8420   -3.0758   -4.4352 H         1 <0>         0.1274
     56 H24        -6.0767   -3.3121   -6.5481 H         1 <0>         0.1162
     57 H25        -6.1570   -1.4465   -8.1483 H         1 <0>         0.1179
     58 H26        -3.7621    0.9260   -5.5185 H         1 <0>         0.1229
     59 H27        -5.4956    0.8136   -8.6809 H         1 <0>         0.3990
     60 H28        -4.5514    1.7451   -7.6497 H         1 <0>         0.3997
     61 H29       -13.6238   -7.8557   -3.7075 H         1 <0>         0.4341
@<TRIPOS>BOND
     1    1    2 1
     2    1   33 1
     3    1   34 1
     4    1   35 1
     5    2    3 1
     6    2    4 1
     7    2   36 1
     8    3   37 1
     9    3   38 1
    10    3   39 1
    11    4    5 1
    12    4   40 1
    13    5   10 ar
    14    5    6 ar
    15    6    7 ar
    16    6   41 1
    17    7    8 ar
    18    7   42 1
    19    8    9 ar
    20    8   26 1
    21    9   10 ar
    22    9   12 1
    23   10   11 1
    24   12   13 1
    25   12   43 1
    26   12   44 1
    27   13   14 2
    28   13   15 am
    29   15   16 1
    30   15   45 1
    31   16   17 1
    32   16   46 1
    33   16   47 1
    34   17   22 ar
    35   17   18 ar
    36   18   19 ar
    37   18   48 1
    38   19   20 ar
    39   19   49 1
    40   20   21 ar
    41   20   23 1
    42   21   22 ar
    43   21   50 1
    44   22   51 1
    45   23   24 2
    46   23   25 1
    47   24   52 1
    48   24   61 1
    49   25   53 1
    50   25   54 1
    51   26   31 ar
    52   26   27 ar
    53   27   28 ar
    54   27   55 1
    55   28   29 ar
    56   28   56 1
    57   29   30 ar
    58   29   57 1
    59   30   31 ar
    60   30   32 1
    61   31   58 1
    62   32   59 1
    63   32   60 1
@<TRIPOS>MOLECULE
CHEMBL140009
   63    65     0     0     0
SMALL
USER_CHARGES

@<TRIPOS>ATOM
      1 C1         -0.2475    1.4961    0.4541 C.3       1 <0>        -0.1598
      2 C2         -0.2262   -0.0334    0.4186 C.3       1 <0>         0.1458
      3 C3          0.2617   -0.5681    1.7665 C.3       1 <0>        -0.1702
      4 N1         -1.5773   -0.5345    0.1546 N.pl3     1 <0>        -0.7232
      5 C4         -1.7548   -1.7926   -0.4320 C.2       1 <0>         0.0955
      6 C5         -0.6616   -2.5682   -0.7587 C.2       1 <0>        -0.1357
      7 C6         -0.8634   -3.8220   -1.3434 C.2       1 <0>        -0.1455
      8 C7         -2.1428   -4.2659   -1.5851 C.2       1 <0>         0.1471
      9 N2         -3.2221   -3.4899   -1.2579 N.am      1 <0>        -0.4583
     10 C8         -3.0541   -2.2813   -0.6890 C.2       1 <0>         0.5208
     11 O1         -4.0275   -1.6044   -0.3988 O.2       1 <0>        -0.5660
     12 C9         -4.5757   -3.9826   -1.5248 C.3       1 <0>         0.0758
     13 C10        -5.1349   -4.6161   -0.2770 C.2       1 <0>         0.5153
     14 O2         -4.4684   -4.6525    0.7356 O.2       1 <0>        -0.5105
     15 N3         -6.3757   -5.1423   -0.2863 N.am      1 <0>        -0.7307
     16 C11        -6.9192   -5.7581    0.9268 C.3       1 <0>         0.1477
     17 C12        -8.3116   -6.2650    0.6522 C.ar      1 <0>        -0.0319
     18 C13        -9.3995   -5.4351    0.8568 C.ar      1 <0>        -0.0962
     19 C14       -10.6769   -5.8933    0.6077 C.ar      1 <0>        -0.0581
     20 C15       -10.8701   -7.1964    0.1481 C.ar      1 <0>        -0.1545
     21 C16        -9.7688   -8.0281   -0.0567 C.ar      1 <0>        -0.0565
     22 C17        -8.4962   -7.5563    0.1912 C.ar      1 <0>        -0.0939
     23 C18       -12.2374   -7.6943   -0.1206 C.cat     1 <0>         0.6017
     24 N4        -12.4186   -8.9384   -0.5592 N.pl3     1 <0>        -0.7613
     25 N5        -13.2864   -6.8984    0.0762 N.pl3     1 <0>        -0.7626
     26 C19        -2.3539   -5.5912   -2.2037 C.ar      1 <0>        -0.0472
     27 C20        -1.7469   -5.8978   -3.4205 C.ar      1 <0>        -0.0975
     28 C21        -1.9489   -7.1497   -4.0006 C.ar      1 <0>        -0.0860
     29 C22        -2.7585   -8.0917   -3.3604 C.ar      1 <0>        -0.1395
     30 C23        -3.3606   -7.7823   -2.1497 C.ar      1 <0>         0.1902
     31 C24        -3.1568   -6.5395   -1.5672 C.ar      1 <0>        -0.1940
     32 N6         -4.1700   -8.7265   -1.5124 N.pl3     1 <0>        -0.8859
     33 C25        -1.3089   -7.4791   -5.2890 C.2       1 <0>         0.5178
     34 O3         -0.6008   -6.6539   -5.8486 O.co2     1 <0>        -0.6784
     35 O4         -1.4866   -8.5772   -5.7969 O.co2     1 <0>        -0.6844
     36 H1          0.7578    1.8689    0.6505 H         1 <0>         0.0720
     37 H2         -0.5951    1.8770   -0.5062 H         1 <0>         0.0619
     38 H3         -0.9202    1.8319    1.2432 H         1 <0>         0.0589
     39 H4          0.4465   -0.3692   -0.3706 H         1 <0>         0.0810
     40 H5          0.2768   -1.6577    1.7412 H         1 <0>         0.0605
     41 H6          1.2669   -0.1952    1.9629 H         1 <0>         0.0639
     42 H7         -0.4110   -0.2323    2.5556 H         1 <0>         0.0561
     43 H8         -2.3489    0.0057    0.3863 H         1 <0>         0.4029
     44 H9          0.3390   -2.2106   -0.5652 H         1 <0>         0.1335
     45 H10        -0.0172   -4.4401   -1.6049 H         1 <0>         0.1479
     46 H11        -5.2122   -3.1508   -1.8265 H         1 <0>         0.1227
     47 H12        -4.5419   -4.7228   -2.3242 H         1 <0>         0.1318
     48 H13        -6.9087   -5.1132   -1.0961 H         1 <0>         0.4035
     49 H14        -6.2827   -6.5899    1.2285 H         1 <0>         0.0889
     50 H15        -6.9531   -5.0179    1.7262 H         1 <0>         0.0887
     51 H16        -9.2486   -4.4266    1.2126 H         1 <0>         0.1513
     52 H17       -11.5254   -5.2448    0.7685 H         1 <0>         0.1392
     53 H18        -9.9120   -9.0379   -0.4120 H         1 <0>         0.1402
     54 H19        -7.6426   -8.1978    0.0293 H         1 <0>         0.1524
     55 H20       -11.6543   -9.5182   -0.7025 H         1 <0>         0.4450
     56 H21       -13.1544   -5.9921    0.3957 H         1 <0>         0.4443
     57 H22       -14.1827   -7.2248   -0.1000 H         1 <0>         0.4330
     58 H23        -1.1220   -5.1675   -3.9129 H         1 <0>         0.1332
     59 H24        -2.9159   -9.0614   -3.8090 H         1 <0>         0.1274
     60 H25        -3.6233   -6.3039   -0.6220 H         1 <0>         0.1148
     61 H26        -4.3103   -9.5970   -1.9168 H         1 <0>         0.3957
     62 H27        -4.5916   -8.5114   -0.6657 H         1 <0>         0.3862
     63 H28       -13.3149   -9.2648   -0.7353 H         1 <0>         0.4331
@<TRIPOS>BOND
     1    1    2 1
     2    1   36 1
     3    1   37 1
     4    1   38 1
     5    2    3 1
     6    2    4 1
     7    2   39 1
     8    3   40 1
     9    3   41 1
    10    3   42 1
    11    4    5 1
    12    4   43 1
    13    5   10 1
    14    5    6 2
    15    6    7 1
    16    6   44 1
    17    7    8 2
    18    7   45 1
    19    8    9 1
    20    8   26 1
    21    9   10 am
    22    9   12 1
    23   10   11 2
    24   12   13 1
    25   12   46 1
    26   12   47 1
    27   13   14 2
    28   13   15 am
    29   15   16 1
    30   15   48 1
    31   16   17 1
    32   16   49 1
    33   16   50 1
    34   17   22 ar
    35   17   18 ar
    36   18   19 ar
    37   18   51 1
    38   19   20 ar
    39   19   52 1
    40   20   21 ar
    41   20   23 1
    42   21   22 ar
    43   21   53 1
    44   22   54 1
    45   23   24 2
    46   23   25 1
    47   24   55 1
    48   24   63 1
    49   25   56 1
    50   25   57 1
    51   26   31 ar
    52   26   27 ar
    53   27   28 ar
    54   27   58 1
    55   28   29 ar
    56   28   33 1
    57   29   30 ar
    58   29   59 1
    59   30   31 ar
    60   30   32 1
    61   31   60 1
    62   32   61 1
    63   32   62 1
    64   33   34 2
    65   33   35 1
@<TRIPOS>MOLECULE
CHEMBL122916
   63    65     0     0     0
SMALL
USER_CHARGES

@<TRIPOS>ATOM
      1 C1         -0.0197    1.5043   -0.0106 C.3       1 <0>        -0.1610
      2 C2          0.0007   -0.0256   -0.0066 C.3       1 <0>         0.1872
      3 C3         -1.4133   -0.5468    0.0092 C.ar      1 <0>        -0.1042
      4 C4         -2.1225   -0.5815    1.1961 C.ar      1 <0>        -0.0758
      5 C5         -3.4182   -1.0584    1.2142 C.ar      1 <0>        -0.1218
      6 C6         -4.0094   -1.5037    0.0383 C.ar      1 <0>         0.2328
      7 C7         -3.2943   -1.4674   -1.1518 C.ar      1 <0>        -0.1863
      8 C8         -2.0005   -0.9838   -1.1637 C.ar      1 <0>        -0.0524
      9 C9         -3.9312   -1.9497   -2.4295 C.3       1 <0>         0.5153
     10 F1         -3.0214   -1.8151   -3.4838 F         1 <0>        -0.1796
     11 F2         -4.2905   -3.2948   -2.2926 F         1 <0>        -0.1729
     12 F3         -5.0728   -1.1871   -2.6984 F         1 <0>        -0.1722
     13 N1         -5.3197   -1.9871    0.0531 N.pl3     1 <0>        -0.6893
     14 C10        -5.5986   -3.4123    0.2908 C.3       1 <0>         0.1093
     15 C11        -6.6562   -3.5203    1.3953 C.3       1 <0>         0.0471
     16 O1         -7.7779   -2.7020    1.0545 O.3       1 <0>        -0.3776
     17 C12        -7.4775   -1.3076    0.9587 C.3       1 <0>         0.0471
     18 C13        -6.4623   -1.0853   -0.1625 C.3       1 <0>         0.1088
     19 N2          0.7099   -0.5014    1.1837 N.am      1 <0>        -0.7174
     20 C14         2.0530   -0.6123    1.1686 C.2       1 <0>         0.5124
     21 O2          2.6745   -0.3182    0.1695 O.2       1 <0>        -0.5309
     22 C15         2.7825   -1.1017    2.3930 C.3       1 <0>         0.1160
     23 N3          4.2222   -1.1325    2.1240 N.am      1 <0>        -0.7203
     24 C16         5.0782   -1.5401    3.0819 C.2       1 <0>         0.7106
     25 O3          4.6556   -1.8822    4.1693 O.2       1 <0>        -0.5656
     26 N4          6.4028   -1.5685    2.8343 N.am      1 <0>        -0.6838
     27 C17         7.2959   -1.8977    3.8538 C.ar      1 <0>         0.2462
     28 C18         6.9410   -2.8456    4.8082 C.ar      1 <0>        -0.1244
     29 C19         7.8204   -3.1724    5.8161 C.ar      1 <0>        -0.0328
     30 C20         9.0700   -2.5515    5.8794 C.ar      1 <0>        -0.1851
     31 C21         9.4235   -1.6004    4.9193 C.ar      1 <0>        -0.0306
     32 C22         8.5419   -1.2817    3.9109 C.ar      1 <0>        -0.1492
     33 C23        10.0156   -2.8995    6.9598 C.cat     1 <0>         0.6033
     34 N5         11.2073   -2.3063    7.0189 N.pl3     1 <0>        -0.7662
     35 N6          9.6768   -3.8066    7.8752 N.pl3     1 <0>        -0.7653
     36 H1          1.0030    1.8812   -0.0221 H         1 <0>         0.0681
     37 H2         -0.5474    1.8583   -0.8963 H         1 <0>         0.0741
     38 H3         -0.5292    1.8632    0.8836 H         1 <0>         0.0627
     39 H4          0.5102   -0.3845   -0.9008 H         1 <0>         0.1039
     40 H5         -1.6623   -0.2356    2.1098 H         1 <0>         0.1316
     41 H6         -3.9714   -1.0856    2.1413 H         1 <0>         0.1371
     42 H7         -1.4453   -0.9512   -2.0896 H         1 <0>         0.1427
     43 H8         -5.9750   -3.8702   -0.6239 H         1 <0>         0.0678
     44 H9         -4.6857   -3.9174    0.6061 H         1 <0>         0.0793
     45 H10        -6.9778   -4.5573    1.4912 H         1 <0>         0.1022
     46 H11        -6.2318   -3.1810    2.3402 H         1 <0>         0.0524
     47 H12        -8.3901   -0.7528    0.7406 H         1 <0>         0.1032
     48 H13        -7.0561   -0.9603    1.9021 H         1 <0>         0.0523
     49 H14        -6.1210   -0.0502   -0.1472 H         1 <0>         0.0804
     50 H15        -6.9271   -1.3050   -1.1236 H         1 <0>         0.0677
     51 H16         0.2128   -0.7366    1.9828 H         1 <0>         0.4045
     52 H17         2.5832   -0.4295    3.2276 H         1 <0>         0.1066
     53 H18         2.4383   -2.1049    2.6443 H         1 <0>         0.1067
     54 H19         4.5594   -0.8596    1.2564 H         1 <0>         0.4148
     55 H20         6.7349   -1.3599    1.9471 H         1 <0>         0.4207
     56 H21         5.9747   -3.3254    4.7587 H         1 <0>         0.1645
     57 H22         7.5440   -3.9079    6.5571 H         1 <0>         0.1403
     58 H23        10.3890   -1.1186    4.9656 H         1 <0>         0.1414
     59 H24         8.8162   -0.5494    3.1659 H         1 <0>         0.1516
     60 H25        11.4539   -1.6459    6.3525 H         1 <0>         0.4431
     61 H26         8.8092   -4.2384    7.8322 H         1 <0>         0.4438
     62 H27        10.2976   -4.0351    8.5846 H         1 <0>         0.4324
     63 H28        11.8282   -2.5348    7.7283 H         1 <0>         0.4324
@<TRIPOS>BOND
     1    1    2 1
     2    1   36 1
     3    1   37 1
     4    1   38 1
     5    2    3 1
     6    2   19 1
     7    2   39 1
     8    3    8 ar
     9    3    4 ar
    10    4    5 ar
    11    4   40 1
    12    5    6 ar
    13    5   41 1
    14    6    7 ar
    15    6   13 1
    16    7    8 ar
    17    7    9 1
    18    8   42 1
    19    9   10 1
    20    9   11 1
    21    9   12 1
    22   13   18 1
    23   13   14 1
    24   14   15 1
    25   14   43 1
    26   14   44 1
    27   15   16 1
    28   15   45 1
    29   15   46 1
    30   16   17 1
    31   17   18 1
    32   17   47 1
    33   17   48 1
    34   18   49 1
    35   18   50 1
    36   19   20 am
    37   19   51 1
    38   20   21 2
    39   20   22 1
    40   22   23 1
    41   22   52 1
    42   22   53 1
    43   23   24 am
    44   23   54 1
    45   24   25 2
    46   24   26 am
    47   26   27 1
    48   26   55 1
    49   27   32 ar
    50   27   28 ar
    51   28   29 ar
    52   28   56 1
    53   29   30 ar
    54   29   57 1
    55   30   31 ar
    56   30   33 1
    57   31   32 ar
    58   31   58 1
    59   32   59 1
    60   33   34 2
    61   33   35 1
    62   34   60 1
    63   34   63 1
    64   35   61 1
    65   35   62 1
@<TRIPOS>MOLECULE
CHEMBL122916__1
   63    65     0     0     0
SMALL
USER_CHARGES

@<TRIPOS>ATOM
      1 C1         -0.0367    1.5475    0.0184 C.3       1 <0>        -0.1609
      2 C2         -0.0054    0.0179    0.0034 C.3       1 <0>         0.1872
      3 C3          0.7281   -0.4816    1.2214 C.ar      1 <0>        -0.1041
      4 C4          0.0778   -0.5459    2.4403 C.ar      1 <0>        -0.0758
      5 C5          0.7470   -1.0030    3.5583 C.ar      1 <0>        -0.1217
      6 C6          2.0750   -1.3986    3.4577 C.ar      1 <0>         0.2327
      7 C7          2.7250   -1.3327    2.2321 C.ar      1 <0>        -0.1862
      8 C8          2.0480   -0.8798    1.1165 C.ar      1 <0>        -0.0525
      9 C9          4.1656   -1.7603    2.1183 C.3       1 <0>         0.5152
     10 F1          4.5954   -1.6039    0.7961 F         1 <0>        -0.1796
     11 F2          4.9545   -0.9704    2.9615 F         1 <0>        -0.1721
     12 F3          4.2844   -3.1033    2.4915 F         1 <0>        -0.1730
     13 N1          2.7551   -1.8611    4.5867 N.pl3     1 <0>        -0.6893
     14 C10         3.4892   -0.9333    5.4617 C.3       1 <0>         0.1088
     15 C11         3.0526   -1.1861    6.9092 C.3       1 <0>         0.0471
     16 O1          3.1870   -2.5784    7.2050 O.3       1 <0>        -0.3776
     17 C12         2.3571   -3.4284    6.4097 C.3       1 <0>         0.0472
     18 C13         2.7534   -3.2896    4.9397 C.3       1 <0>         0.1093
     19 N2         -1.3763   -0.4987    0.0130 N.am      1 <0>        -0.7176
     20 C14        -2.0551   -0.6299   -1.1439 C.2       1 <0>         0.5124
     21 O2         -1.5311   -0.3204   -2.1929 O.2       1 <0>        -0.5308
     22 C15        -3.4653   -1.1613   -1.1340 C.3       1 <0>         0.1160
     23 N3         -3.9793   -1.2076   -2.5051 N.am      1 <0>        -0.7203
     24 C16        -5.2295   -1.6524   -2.7414 C.2       1 <0>         0.7106
     25 O3         -5.9306   -2.0152   -1.8167 O.2       1 <0>        -0.5656
     26 N4         -5.7024   -1.6950   -4.0027 N.am      1 <0>        -0.6838
     27 C17        -6.9588   -2.2442   -4.2583 C.ar      1 <0>         0.2462
     28 C18        -7.9893   -2.0771   -3.3390 C.ar      1 <0>        -0.1244
     29 C19        -9.2306   -2.6184   -3.5882 C.ar      1 <0>        -0.0328
     30 C20        -9.4546   -3.3355   -4.7658 C.ar      1 <0>        -0.1850
     31 C21        -8.4179   -3.5011   -5.6872 C.ar      1 <0>        -0.0306
     32 C22        -7.1802   -2.9530   -5.4347 C.ar      1 <0>        -0.1492
     33 C23       -10.7851   -3.9180   -5.0360 C.cat     1 <0>         0.6033
     34 N5        -10.9973   -4.6018   -6.1599 N.pl3     1 <0>        -0.7662
     35 N6        -11.7730   -3.7596   -4.1560 N.pl3     1 <0>        -0.7652
     36 H1          0.9833    1.9318    0.0113 H         1 <0>         0.0741
     37 H2         -0.5673    1.9087   -0.8625 H         1 <0>         0.0682
     38 H3         -0.5483    1.8916    0.9172 H         1 <0>         0.0627
     39 H4          0.5062   -0.3263   -0.8954 H         1 <0>         0.1039
     40 H5         -0.9544   -0.2379    2.5179 H         1 <0>         0.1316
     41 H6          0.2388   -1.0526    4.5100 H         1 <0>         0.1371
     42 H7          2.5515   -0.8325    0.1623 H         1 <0>         0.1427
     43 H8          4.5608   -1.1083    5.3655 H         1 <0>         0.0681
     44 H9          3.2582    0.0948    5.1828 H         1 <0>         0.0804
     45 H10         3.6820   -0.6079    7.5856 H         1 <0>         0.1029
     46 H11         2.0121   -0.8863    7.0333 H         1 <0>         0.0527
     47 H12         2.4862   -4.4633    6.7267 H         1 <0>         0.1025
     48 H13         1.3140   -3.1368    6.5319 H         1 <0>         0.0520
     49 H14         2.0353   -3.8212    4.3153 H         1 <0>         0.0793
     50 H15         3.7496   -3.7059    4.7901 H         1 <0>         0.0674
     51 H16        -1.7954   -0.7462    0.8520 H         1 <0>         0.4044
     52 H17        -3.4724   -2.1651   -0.7092 H         1 <0>         0.1064
     53 H18        -4.0958   -0.5074   -0.5315 H         1 <0>         0.1069
     54 H19        -3.4200   -0.9182   -3.2428 H         1 <0>         0.4148
     55 H20        -5.1690   -1.3438   -4.7328 H         1 <0>         0.4207
     56 H21        -7.8156   -1.5226   -2.4286 H         1 <0>         0.1646
     57 H22       -10.0301   -2.4890   -2.8737 H         1 <0>         0.1403
     58 H23        -8.5880   -4.0550   -6.5986 H         1 <0>         0.1414
     59 H24        -6.3794   -3.0772   -6.1485 H         1 <0>         0.1516
     60 H25       -10.2781   -4.7172   -6.8005 H         1 <0>         0.4431
     61 H26       -11.6186   -3.2618   -3.3379 H         1 <0>         0.4438
     62 H27       -12.6466   -4.1420   -4.3334 H         1 <0>         0.4324
     63 H28       -11.8708   -4.9843   -6.3373 H         1 <0>         0.4324
@<TRIPOS>BOND
     1    1    2 1
     2    1   36 1
     3    1   37 1
     4    1   38 1
     5    2    3 1
     6    2   19 1
     7    2   39 1
     8    3    8 ar
     9    3    4 ar
    10    4    5 ar
    11    4   40 1
    12    5    6 ar
    13    5   41 1
    14    6    7 ar
    15    6   13 1
    16    7    8 ar
    17    7    9 1
    18    8   42 1
    19    9   10 1
    20    9   11 1
    21    9   12 1
    22   13   18 1
    23   13   14 1
    24   14   15 1
    25   14   43 1
    26   14   44 1
    27   15   16 1
    28   15   45 1
    29   15   46 1
    30   16   17 1
    31   17   18 1
    32   17   47 1
    33   17   48 1
    34   18   49 1
    35   18   50 1
    36   19   20 am
    37   19   51 1
    38   20   21 2
    39   20   22 1
    40   22   23 1
    41   22   52 1
    42   22   53 1
    43   23   24 am
    44   23   54 1
    45   24   25 2
    46   24   26 am
    47   26   27 1
    48   26   55 1
    49   27   32 ar
    50   27   28 ar
    51   28   29 ar
    52   28   56 1
    53   29   30 ar
    54   29   57 1
    55   30   31 ar
    56   30   33 1
    57   31   32 ar
    58   31   58 1
    59   32   59 1
    60   33   34 2
    61   33   35 1
    62   34   60 1
    63   34   63 1
    64   35   61 1
    65   35   62 1
@<TRIPOS>MOLECULE
CHEMBL330943
   61    63     0     0     0
SMALL
USER_CHARGES

@<TRIPOS>ATOM
      1 C1         -0.3229    1.1576   -1.0450 C.3       1 <0>        -0.1605
      2 C2         -0.4488   -0.3599   -1.1945 C.3       1 <0>         0.1886
      3 C3          0.8072   -1.0205   -0.6874 C.ar      1 <0>        -0.1147
      4 C4          1.9348   -1.0640   -1.4867 C.ar      1 <0>        -0.0933
      5 C5          3.0874   -1.6687   -1.0250 C.ar      1 <0>        -0.1151
      6 C6          3.1134   -2.2331    0.2438 C.ar      1 <0>         0.1543
      7 C7          1.9792   -2.1873    1.0442 C.ar      1 <0>        -0.1394
      8 C8          0.8313   -1.5769    0.5783 C.ar      1 <0>        -0.0832
      9 N1          4.2787   -2.8466    0.7141 N.am      1 <0>        -0.6723
     10 C9          5.4855   -2.3679    0.3522 C.2       1 <0>         0.5625
     11 O1          5.5625   -1.3505   -0.3087 O.2       1 <0>        -0.5131
     12 C10         6.7154   -3.0799    0.7589 C.ar      1 <0>        -0.1429
     13 C11         6.6302   -4.2515    1.5129 C.ar      1 <0>        -0.0859
     14 C12         7.7819   -4.9114    1.8887 C.ar      1 <0>        -0.1260
     15 C13         9.0194   -4.4141    1.5203 C.ar      1 <0>        -0.0870
     16 C14         9.1109   -3.2533    0.7730 C.ar      1 <0>        -0.1257
     17 C15         7.9668   -2.5867    0.3857 C.ar      1 <0>        -0.0558
     18 N2         -0.6418   -0.6970   -2.6070 N.am      1 <0>        -0.7155
     19 C16        -1.8781   -0.6714   -3.1431 C.2       1 <0>         0.5114
     20 O2         -2.8308   -0.3692   -2.4561 O.2       1 <0>        -0.5344
     21 C17        -2.0767   -1.0183   -4.5961 C.3       1 <0>         0.1151
     22 N3         -3.4989   -0.9168   -4.9325 N.am      1 <0>        -0.7195
     23 C18        -3.9156   -1.1837   -6.1861 C.2       1 <0>         0.7093
     24 O3         -3.1112   -1.5086   -7.0379 O.2       1 <0>        -0.5643
     25 N4         -5.2241   -1.0903   -6.4955 N.am      1 <0>        -0.6836
     26 C19        -5.6705   -1.4720   -7.7607 C.ar      1 <0>         0.2507
     27 C20        -5.0535   -2.5268   -8.4254 C.ar      1 <0>        -0.1254
     28 C21        -5.4916   -2.9056   -9.6746 C.ar      1 <0>        -0.0307
     29 C22        -6.5570   -2.2298  -10.2741 C.ar      1 <0>        -0.1870
     30 C23        -7.1747   -1.1713   -9.6039 C.ar      1 <0>        -0.0286
     31 C24        -6.7354   -0.8006   -8.3527 C.ar      1 <0>        -0.1509
     32 C25        -7.0292   -2.6334  -11.6145 C.cat     1 <0>         0.6035
     33 N5         -8.0456   -1.9878  -12.1852 N.pl3     1 <0>        -0.7665
     34 N6         -6.4387   -3.6431  -12.2529 N.pl3     1 <0>        -0.7656
     35 H1          0.5317    1.5099   -1.6227 H         1 <0>         0.0617
     36 H2         -1.2313    1.6355   -1.4117 H         1 <0>         0.0646
     37 H3         -0.1793    1.4085    0.0060 H         1 <0>         0.0727
     38 H4         -1.3033   -0.7122   -0.6168 H         1 <0>         0.1001
     39 H5          1.9140   -0.6249   -2.4732 H         1 <0>         0.1242
     40 H6          3.9675   -1.7029   -1.6500 H         1 <0>         0.1375
     41 H7          1.9960   -2.6257    2.0311 H         1 <0>         0.1305
     42 H8         -0.0497   -1.5374    1.2018 H         1 <0>         0.1309
     43 H9          4.2185   -3.6167    1.3009 H         1 <0>         0.4120
     44 H10         5.6649   -4.6404    1.8017 H         1 <0>         0.1252
     45 H11         7.7175   -5.8180    2.4721 H         1 <0>         0.1323
     46 H12         9.9180   -4.9342    1.8178 H         1 <0>         0.1312
     47 H13        10.0799   -2.8702    0.4890 H         1 <0>         0.1338
     48 H14         8.0394   -1.6832   -0.2014 H         1 <0>         0.1379
     49 H15         0.1202   -0.9387   -3.1565 H         1 <0>         0.4048
     50 H16        -1.5065   -0.3264   -5.2160 H         1 <0>         0.1063
     51 H17        -1.7323   -2.0365   -4.7770 H         1 <0>         0.1063
     52 H18        -4.1407   -0.6576   -4.2529 H         1 <0>         0.4147
     53 H19        -5.8553   -0.7577   -5.8384 H         1 <0>         0.4206
     54 H20        -4.2299   -3.0489   -7.9613 H         1 <0>         0.1594
     55 H21        -5.0118   -3.7242  -10.1905 H         1 <0>         0.1402
     56 H22        -7.9986   -0.6469  -10.0649 H         1 <0>         0.1414
     57 H23        -7.2152    0.0151   -7.8322 H         1 <0>         0.1517
     58 H24        -8.4755   -1.2528  -11.7205 H         1 <0>         0.4431
     59 H25        -5.6988   -4.1131  -11.8375 H         1 <0>         0.4437
     60 H26        -6.7487   -3.9081  -13.1330 H         1 <0>         0.4323
     61 H27        -8.3556   -2.2528  -13.0653 H         1 <0>         0.4323
@<TRIPOS>BOND
     1    1    2 1
     2    1   35 1
     3    1   36 1
     4    1   37 1
     5    2    3 1
     6    2   18 1
     7    2   38 1
     8    3    8 ar
     9    3    4 ar
    10    4    5 ar
    11    4   39 1
    12    5    6 ar
    13    5   40 1
    14    6    7 ar
    15    6    9 1
    16    7    8 ar
    17    7   41 1
    18    8   42 1
    19    9   10 am
    20    9   43 1
    21   10   11 2
    22   10   12 1
    23   12   17 ar
    24   12   13 ar
    25   13   14 ar
    26   13   44 1
    27   14   15 ar
    28   14   45 1
    29   15   16 ar
    30   15   46 1
    31   16   17 ar
    32   16   47 1
    33   17   48 1
    34   18   19 am
    35   18   49 1
    36   19   20 2
    37   19   21 1
    38   21   22 1
    39   21   50 1
    40   21   51 1
    41   22   23 am
    42   22   52 1
    43   23   24 2
    44   23   25 am
    45   25   26 1
    46   25   53 1
    47   26   31 ar
    48   26   27 ar
    49   27   28 ar
    50   27   54 1
    51   28   29 ar
    52   28   55 1
    53   29   30 ar
    54   29   32 1
    55   30   31 ar
    56   30   56 1
    57   31   57 1
    58   32   33 2
    59   32   34 1
    60   33   58 1
    61   33   61 1
    62   34   59 1
    63   34   60 1
@<TRIPOS>MOLECULE
CHEMBL330943__1
   61    63     0     0     0
SMALL
USER_CHARGES

@<TRIPOS>ATOM
      1 C1         -0.1878    1.3136    0.2634 C.3       1 <0>        -0.1595
      2 C2         -0.4728   -0.0732    0.8436 C.3       1 <0>         0.1882
      3 C3          0.5186   -1.0633    0.2888 C.ar      1 <0>        -0.1146
      4 C4          1.7898   -1.1423    0.8274 C.ar      1 <0>        -0.0934
      5 C5          2.7007   -2.0486    0.3213 C.ar      1 <0>        -0.1149
      6 C6          2.3387   -2.8815   -0.7296 C.ar      1 <0>         0.1542
      7 C7          1.0610   -2.7999   -1.2680 C.ar      1 <0>        -0.1392
      8 C8          0.1533   -1.8947   -0.7540 C.ar      1 <0>        -0.0832
      9 N1          3.2589   -3.8000   -1.2447 N.am      1 <0>        -0.6720
     10 C9          4.1581   -4.3834   -0.4277 C.2       1 <0>         0.5632
     11 O1          4.1123   -4.1809    0.7700 O.2       1 <0>        -0.5147
     12 C10         5.2001   -5.2695   -0.9881 C.ar      1 <0>        -0.1433
     13 C11         5.2591   -5.4996   -2.3637 C.ar      1 <0>        -0.0855
     14 C12         6.2343   -6.3274   -2.8802 C.ar      1 <0>        -0.1256
     15 C13         7.1524   -6.9293   -2.0380 C.ar      1 <0>        -0.0869
     16 C14         7.0996   -6.7054   -0.6737 C.ar      1 <0>        -0.1260
     17 C15         6.1330   -5.8753   -0.1447 C.ar      1 <0>        -0.0559
     18 N2         -0.3516   -0.0263    2.3029 N.am      1 <0>        -0.7157
     19 C16        -1.4012    0.3617    3.0541 C.2       1 <0>         0.5117
     20 O2         -2.4460    0.6721    2.5221 O.2       1 <0>        -0.5348
     21 C17        -1.2766    0.4100    4.5552 C.3       1 <0>         0.1149
     22 N3         -2.5442    0.8592    5.1362 N.am      1 <0>        -0.7194
     23 C18        -2.6678    0.9789    6.4730 C.2       1 <0>         0.7092
     24 O3         -1.7274    0.7141    7.1966 O.2       1 <0>        -0.5640
     25 N4         -3.8339    1.3922    7.0075 N.am      1 <0>        -0.6836
     26 C19        -3.9294    1.6220    8.3800 C.ar      1 <0>         0.2508
     27 C20        -2.8332    2.1175    9.0786 C.ar      1 <0>        -0.1253
     28 C21        -2.9241    2.3450   10.4336 C.ar      1 <0>        -0.0307
     29 C22        -4.1188    2.0781   11.1065 C.ar      1 <0>        -0.1871
     30 C23        -5.2178    1.5811   10.4020 C.ar      1 <0>        -0.0286
     31 C24        -5.1223    1.3607    9.0462 C.ar      1 <0>        -0.1510
     32 C25        -4.2196    2.3206   12.5603 C.cat     1 <0>         0.6036
     33 N5         -5.3599    2.0656   13.2008 N.pl3     1 <0>        -0.7665
     34 N6         -3.1702    2.7944   13.2310 N.pl3     1 <0>        -0.7656
     35 H1          0.8224    1.6202    0.5345 H         1 <0>         0.0613
     36 H2         -0.2780    1.2787   -0.8223 H         1 <0>         0.0726
     37 H3         -0.9049    2.0297    0.6647 H         1 <0>         0.0646
     38 H4         -1.4830   -0.3798    0.5726 H         1 <0>         0.0999
     39 H5          2.0706   -0.4944    1.6446 H         1 <0>         0.1240
     40 H6          3.6936   -2.1093    0.7419 H         1 <0>         0.1376
     41 H7          0.7766   -3.4459   -2.0854 H         1 <0>         0.1305
     42 H8         -0.8417   -1.8336   -1.1695 H         1 <0>         0.1309
     43 H9          3.2500   -4.0172   -2.1901 H         1 <0>         0.4124
     44 H10         4.5426   -5.0310   -3.0220 H         1 <0>         0.1255
     45 H11         6.2811   -6.5062   -3.9442 H         1 <0>         0.1326
     46 H12         7.9135   -7.5770   -2.4474 H         1 <0>         0.1313
     47 H13         7.8190   -7.1786   -0.0218 H         1 <0>         0.1336
     48 H14         6.0955   -5.6979    0.9199 H         1 <0>         0.1375
     49 H15         0.4840   -0.2745    2.7284 H         1 <0>         0.4051
     50 H16        -1.0363   -0.5842    4.9319 H         1 <0>         0.1064
     51 H17        -0.4836    1.1048    4.8318 H         1 <0>         0.1065
     52 H18        -3.2945    1.0705    4.5589 H         1 <0>         0.4146
     53 H19        -4.6068    1.5299    6.4378 H         1 <0>         0.4205
     54 H20        -1.9098    2.3236    8.5578 H         1 <0>         0.1594
     55 H21        -2.0726    2.7290   10.9756 H         1 <0>         0.1403
     56 H22        -6.1429    1.3739   10.9195 H         1 <0>         0.1413
     57 H23        -5.9729    0.9802    8.5002 H         1 <0>         0.1517
     58 H24        -6.1238    1.7208   12.7125 H         1 <0>         0.4431
     59 H25        -2.3401    2.9800   12.7648 H         1 <0>         0.4437
     60 H26        -3.2363    2.9536   14.1856 H         1 <0>         0.4323
     61 H27        -5.4260    2.2248   14.1554 H         1 <0>         0.4323
@<TRIPOS>BOND
     1    1    2 1
     2    1   35 1
     3    1   36 1
     4    1   37 1
     5    2    3 1
     6    2   18 1
     7    2   38 1
     8    3    8 ar
     9    3    4 ar
    10    4    5 ar
    11    4   39 1
    12    5    6 ar
    13    5   40 1
    14    6    7 ar
    15    6    9 1
    16    7    8 ar
    17    7   41 1
    18    8   42 1
    19    9   10 am
    20    9   43 1
    21   10   11 2
    22   10   12 1
    23   12   17 ar
    24   12   13 ar
    25   13   14 ar
    26   13   44 1
    27   14   15 ar
    28   14   45 1
    29   15   16 ar
    30   15   46 1
    31   16   17 ar
    32   16   47 1
    33   17   48 1
    34   18   19 am
    35   18   49 1
    36   19   20 2
    37   19   21 1
    38   21   22 1
    39   21   50 1
    40   21   51 1
    41   22   23 am
    42   22   52 1
    43   23   24 2
    44   23   25 am
    45   25   26 1
    46   25   53 1
    47   26   31 ar
    48   26   27 ar
    49   27   28 ar
    50   27   54 1
    51   28   29 ar
    52   28   55 1
    53   29   30 ar
    54   29   32 1
    55   30   31 ar
    56   30   56 1
    57   31   57 1
    58   32   33 2
    59   32   34 1
    60   33   58 1
    61   33   61 1
    62   34   59 1
    63   34   60 1
@<TRIPOS>MOLECULE
CHEMBL199277
   64    66     0     0     0
SMALL
USER_CHARGES

@<TRIPOS>ATOM
      1 C1          0.7571    1.4704    0.3970 C.3       1 <0>        -0.1522
      2 C2          0.5816   -0.0458    0.2905 C.3       1 <0>         0.0526
      3 O1          1.0559   -0.4920   -0.9816 O.3       1 <0>        -0.3105
      4 C3          0.9712   -1.8237   -1.2391 C.ar      1 <0>         0.1728
      5 C4          1.4189   -2.3262   -2.4529 C.ar      1 <0>        -0.1790
      6 C5          1.3331   -3.6799   -2.7153 C.ar      1 <0>         0.0080
      7 C6          0.8012   -4.5368   -1.7706 C.ar      1 <0>        -0.2301
      8 C7          0.3523   -4.0394   -0.5556 C.ar      1 <0>         0.1731
      9 C8          0.4430   -2.6820   -0.2874 C.ar      1 <0>        -0.2464
     10 O2         -0.1707   -4.8825    0.3730 O.3       1 <0>        -0.3059
     11 C9         -0.1193   -6.2806    0.0819 C.3       1 <0>         0.0849
     12 C10        -1.3261   -6.6674   -0.7761 C.3       1 <0>        -0.1569
     13 C11        -1.2494   -8.1594   -1.1151 C.3       1 <0>         0.1202
     14 N1         -1.1280   -8.9226    0.1345 N.pl3     1 <0>        -1.0020
     15 C12        -0.0554   -8.5716    1.0753 C.3       1 <0>         0.1205
     16 C13        -0.1455   -7.0750    1.3897 C.3       1 <0>        -0.1259
     17 S1         -2.1804  -10.1547    0.4764 S.o2      1 <0>         2.6099
     18 O3         -2.1958  -10.2352    1.8950 O.2       1 <0>        -0.9526
     19 O4         -3.3622   -9.8324   -0.2438 O.2       1 <0>        -0.9545
     20 C14        -1.4059  -11.6374   -0.2252 C.3       1 <0>        -0.6736
     21 C15         1.8199   -4.2228   -4.0341 C.3       1 <0>         0.0985
     22 C16         3.3199   -4.3628   -3.9968 C.2       1 <0>         0.4950
     23 O5          3.8256   -5.4040   -3.6137 O.co2     1 <0>        -0.6741
     24 O6          4.0278   -3.4350   -4.3497 O.co2     1 <0>        -0.6656
     25 N2          1.4419   -3.3033   -5.1102 N.pl3     1 <0>        -0.6591
     26 C17         1.2966   -3.7764   -6.4103 C.ar      1 <0>         0.3056
     27 C18         1.5051   -5.1246   -6.6862 C.ar      1 <0>        -0.1982
     28 C19         1.3616   -5.5956   -7.9716 C.ar      1 <0>        -0.0011
     29 C20         1.0063   -4.7188   -8.9999 C.ar      1 <0>        -0.2549
     30 C21         0.7977   -3.3660   -8.7199 C.ar      1 <0>        -0.0024
     31 C22         0.9374   -2.9016   -7.4317 C.ar      1 <0>        -0.2055
     32 C23         0.8521   -5.2210  -10.3800 C.cat     1 <0>         0.6020
     33 N3          0.5132   -4.3836  -11.3599 N.pl3     1 <0>        -0.7828
     34 N4          1.0518   -6.5117  -10.6458 N.pl3     1 <0>        -0.7815
     35 H1          1.8127    1.7221    0.2940 H         1 <0>         0.0674
     36 H2          0.1883    1.9584   -0.3945 H         1 <0>         0.0655
     37 H3          0.3954    1.8107    1.3672 H         1 <0>         0.0784
     38 H4          1.1504   -0.5339    1.0819 H         1 <0>         0.0640
     39 H5         -0.4739   -0.2975    0.3934 H         1 <0>         0.0628
     40 H6          1.8343   -1.6584   -3.1931 H         1 <0>         0.1308
     41 H7          0.7345   -5.5946   -1.9783 H         1 <0>         0.1328
     42 H8          0.0983   -2.2935    0.6595 H         1 <0>         0.1351
     43 H9          0.7988   -6.5050   -0.4610 H         1 <0>         0.0831
     44 H10        -2.2443   -6.4665   -0.2242 H         1 <0>         0.0817
     45 H11        -1.3196   -6.0843   -1.6970 H         1 <0>         0.0842
     46 H12        -2.1549   -8.4616   -1.6413 H         1 <0>         0.1002
     47 H13        -0.3790   -8.3470   -1.7438 H         1 <0>         0.0751
     48 H14        -0.1730   -9.1458    1.9943 H         1 <0>         0.1041
     49 H15         0.9124   -8.7928    0.6251 H         1 <0>         0.0771
     50 H16         0.7013   -6.7820    2.0103 H         1 <0>         0.0885
     51 H17        -1.0748   -6.8703    1.9213 H         1 <0>         0.0813
     52 H18        -0.4342  -11.7958    0.2425 H         1 <0>         0.1287
     53 H19        -2.0433  -12.5022   -0.0406 H         1 <0>         0.1280
     54 H20        -1.2750  -11.5053   -1.2993 H         1 <0>         0.1274
     55 H21         1.3683   -5.1983   -4.2144 H         1 <0>         0.0959
     56 H22         1.2929   -2.3647   -4.9161 H         1 <0>         0.4094
     57 H23         1.7800   -5.8018   -5.8911 H         1 <0>         0.1457
     58 H24         1.5238   -6.6418   -8.1852 H         1 <0>         0.1287
     59 H25         0.5233   -2.6859   -9.5128 H         1 <0>         0.1282
     60 H26         0.7719   -1.8568   -7.2139 H         1 <0>         0.1399
     61 H27         0.3678   -3.4443  -11.1665 H         1 <0>         0.4393
     62 H28         1.2985   -7.1212   -9.9326 H         1 <0>         0.4405
     63 H29         0.9505   -6.8415  -11.5523 H         1 <0>         0.4240
     64 H30         0.4118   -4.7135  -12.2664 H         1 <0>         0.4240
@<TRIPOS>BOND
     1    1    2 1
     2    1   35 1
     3    1   36 1
     4    1   37 1
     5    2    3 1
     6    2   38 1
     7    2   39 1
     8    3    4 1
     9    4    9 ar
    10    4    5 ar
    11    5    6 ar
    12    5   40 1
    13    6    7 ar
    14    6   21 1
    15    7    8 ar
    16    7   41 1
    17    8    9 ar
    18    8   10 1
    19    9   42 1
    20   10   11 1
    21   11   16 1
    22   11   12 1
    23   11   43 1
    24   12   13 1
    25   12   44 1
    26   12   45 1
    27   13   14 1
    28   13   46 1
    29   13   47 1
    30   14   15 1
    31   14   17 1
    32   15   16 1
    33   15   48 1
    34   15   49 1
    35   16   50 1
    36   16   51 1
    37   17   18 2
    38   17   19 2
    39   17   20 1
    40   20   52 1
    41   20   53 1
    42   20   54 1
    43   21   22 1
    44   21   25 1
    45   21   55 1
    46   22   23 2
    47   22   24 1
    48   25   26 1
    49   25   56 1
    50   26   31 ar
    51   26   27 ar
    52   27   28 ar
    53   27   57 1
    54   28   29 ar
    55   28   58 1
    56   29   30 ar
    57   29   32 1
    58   30   31 ar
    59   30   59 1
    60   31   60 1
    61   32   33 2
    62   32   34 1
    63   33   61 1
    64   33   64 1
    65   34   62 1
    66   34   63 1
@<TRIPOS>MOLECULE
CHEMBL199277__1
   64    66     0     0     0
SMALL
USER_CHARGES

@<TRIPOS>ATOM
      1 C1          0.7602    1.4699    0.3970 C.3       1 <0>        -0.1522
      2 C2          0.5837   -0.0461    0.2904 C.3       1 <0>         0.0526
      3 O1          1.0539   -0.4920   -0.9833 O.3       1 <0>        -0.3110
      4 C3          0.9679   -1.8235   -1.2411 C.ar      1 <0>         0.1737
      5 C4          1.4116   -2.3257   -2.4566 C.ar      1 <0>        -0.1854
      6 C5          1.3244   -3.6792   -2.7193 C.ar      1 <0>         0.0130
      7 C6          0.7949   -4.5363   -1.7733 C.ar      1 <0>        -0.2261
      8 C7          0.3499   -4.0392   -0.5568 C.ar      1 <0>         0.1744
      9 C8          0.4421   -2.6820   -0.2883 C.ar      1 <0>        -0.2472
     10 O2         -0.1707   -4.8825    0.3730 O.3       1 <0>        -0.3062
     11 C9         -0.1193   -6.2806    0.0819 C.3       1 <0>         0.0893
     12 C10        -1.3261   -6.6674   -0.7761 C.3       1 <0>        -0.1625
     13 C11        -1.2494   -8.1594   -1.1151 C.3       1 <0>         0.1218
     14 N1         -1.1280   -8.9226    0.1345 N.pl3     1 <0>        -1.0026
     15 C12        -0.0554   -8.5716    1.0753 C.3       1 <0>         0.1227
     16 C13        -0.1455   -7.0750    1.3897 C.3       1 <0>        -0.1264
     17 S1         -2.1804  -10.1547    0.4764 S.o2      1 <0>         2.6088
     18 O3         -2.1958  -10.2352    1.8950 O.2       1 <0>        -0.9543
     19 O4         -3.3622   -9.8324   -0.2438 O.2       1 <0>        -0.9500
     20 C14        -1.4059  -11.6374   -0.2252 C.3       1 <0>        -0.6739
     21 C15         1.8069   -4.2218   -4.0398 C.3       1 <0>         0.0966
     22 C16         0.7556   -3.9872   -5.0937 C.2       1 <0>         0.4937
     23 O5          0.9506   -3.1711   -5.9782 O.co2     1 <0>        -0.6680
     24 O6         -0.2900   -4.6135   -5.0618 O.co2     1 <0>        -0.6689
     25 N2          3.0451   -3.5399   -4.4249 N.pl3     1 <0>        -0.6574
     26 C17         3.9488   -4.1672   -5.2762 C.ar      1 <0>         0.3117
     27 C18         3.6728   -5.4405   -5.7659 C.ar      1 <0>        -0.1959
     28 C19         4.5650   -6.0635   -6.6088 C.ar      1 <0>        -0.0018
     29 C20         5.7487   -5.4165   -6.9726 C.ar      1 <0>        -0.2558
     30 C21         6.0232   -4.1384   -6.4794 C.ar      1 <0>        -0.0023
     31 C22         5.1248   -3.5181   -5.6411 C.ar      1 <0>        -0.2058
     32 C23         6.7082   -6.0825   -7.8764 C.cat     1 <0>         0.6016
     33 N3          7.8369   -5.4642   -8.2226 N.pl3     1 <0>        -0.7832
     34 N4          6.4453   -7.3019   -8.3457 N.pl3     1 <0>        -0.7820
     35 H1          1.8156    1.7212    0.2910 H         1 <0>         0.0654
     36 H2          0.1893    1.9586   -0.3925 H         1 <0>         0.0673
     37 H3          0.4016    1.8100    1.3685 H         1 <0>         0.0785
     38 H4          1.1547   -0.5348    1.0799 H         1 <0>         0.0627
     39 H5         -0.4716   -0.2974    0.3964 H         1 <0>         0.0642
     40 H6          1.8251   -1.6578   -3.1977 H         1 <0>         0.1284
     41 H7          0.7271   -5.5939   -1.9813 H         1 <0>         0.1325
     42 H8          0.1004   -2.2937    0.6598 H         1 <0>         0.1350
     43 H9          0.7988   -6.5050   -0.4610 H         1 <0>         0.0769
     44 H10        -2.2443   -6.4665   -0.2242 H         1 <0>         0.0823
     45 H11        -1.3196   -6.0843   -1.6970 H         1 <0>         0.0940
     46 H12        -2.1549   -8.4616   -1.6413 H         1 <0>         0.1033
     47 H13        -0.3790   -8.3470   -1.7438 H         1 <0>         0.0736
     48 H14        -0.1730   -9.1458    1.9943 H         1 <0>         0.1030
     49 H15         0.9124   -8.7928    0.6251 H         1 <0>         0.0726
     50 H16         0.7013   -6.7820    2.0103 H         1 <0>         0.0857
     51 H17        -1.0748   -6.8703    1.9213 H         1 <0>         0.0826
     52 H18        -0.4342  -11.7958    0.2425 H         1 <0>         0.1265
     53 H19        -2.0433  -12.5022   -0.0406 H         1 <0>         0.1280
     54 H20        -1.2750  -11.5053   -1.2993 H         1 <0>         0.1280
     55 H21         1.9952   -5.2913   -3.9462 H         1 <0>         0.0958
     56 H22         3.2346   -2.6509   -4.0862 H         1 <0>         0.4084
     57 H23         2.7578   -5.9403   -5.4841 H         1 <0>         0.1421
     58 H24         4.3504   -7.0516   -6.9882 H         1 <0>         0.1279
     59 H25         6.9375   -3.6360   -6.7588 H         1 <0>         0.1277
     60 H26         5.3343   -2.5283   -5.2631 H         1 <0>         0.1393
     61 H27         8.0282   -4.5767   -7.8810 H         1 <0>         0.4393
     62 H28         5.6238   -7.7519   -8.0937 H         1 <0>         0.4403
     63 H29         7.0755   -7.7393   -8.9394 H         1 <0>         0.4238
     64 H30         8.4671   -5.9016   -8.8163 H         1 <0>         0.4238
@<TRIPOS>BOND
     1    1    2 1
     2    1   35 1
     3    1   36 1
     4    1   37 1
     5    2    3 1
     6    2   38 1
     7    2   39 1
     8    3    4 1
     9    4    9 ar
    10    4    5 ar
    11    5    6 ar
    12    5   40 1
    13    6    7 ar
    14    6   21 1
    15    7    8 ar
    16    7   41 1
    17    8    9 ar
    18    8   10 1
    19    9   42 1
    20   10   11 1
    21   11   16 1
    22   11   12 1
    23   11   43 1
    24   12   13 1
    25   12   44 1
    26   12   45 1
    27   13   14 1
    28   13   46 1
    29   13   47 1
    30   14   15 1
    31   14   17 1
    32   15   16 1
    33   15   48 1
    34   15   49 1
    35   16   50 1
    36   16   51 1
    37   17   18 2
    38   17   19 2
    39   17   20 1
    40   20   52 1
    41   20   53 1
    42   20   54 1
    43   21   22 1
    44   21   25 1
    45   21   55 1
    46   22   23 2
    47   22   24 1
    48   25   26 1
    49   25   56 1
    50   26   31 ar
    51   26   27 ar
    52   27   28 ar
    53   27   57 1
    54   28   29 ar
    55   28   58 1
    56   29   30 ar
    57   29   32 1
    58   30   31 ar
    59   30   59 1
    60   31   60 1
    61   32   33 2
    62   32   34 1
    63   33   61 1
    64   33   64 1
    65   34   62 1
    66   34   63 1
@<TRIPOS>MOLECULE
CHEMBL523575
   71    71     0     0     0
SMALL
USER_CHARGES

@<TRIPOS>ATOM
      1 C1         -1.1420    0.9795   -0.8557 C.3       1 <0>        -0.1455
      2 C2         -1.4835   -0.4254   -0.3552 C.3       1 <0>        -0.1169
      3 C3         -0.4839   -0.8382    0.7271 C.3       1 <0>        -0.6303
      4 S1         -0.8887   -2.5039    1.3204 S.o2      1 <0>         2.6027
      5 O1         -2.0532   -2.4642    2.1337 O.2       1 <0>        -0.9516
      6 O2         -0.7782   -3.4419    0.2588 O.2       1 <0>        -0.9461
      7 N1          0.3395   -2.8955    2.3599 N.pl3     1 <0>        -1.1026
      8 C4          0.5586   -2.0974    3.5687 C.3       1 <0>         0.1369
      9 H1         -0.3780   -1.6273    3.8684 H         1 <0>         0.1152
     10 C5          1.6034   -1.0166    3.2837 C.3       1 <0>        -0.1135
     11 H2          1.2588   -0.3850    2.4649 H         1 <0>         0.0942
     12 C6          1.8075   -0.1617    4.5361 C.3       1 <0>        -0.1634
     13 C7          2.9278   -1.6771    2.8958 C.3       1 <0>        -0.1242
     14 C8          2.8322   -2.2095    1.4646 C.3       1 <0>        -0.1693
     15 C9          1.0499   -2.9908    4.6784 C.2       1 <0>         0.5303
     16 O3          1.6556   -4.0080    4.4148 O.2       1 <0>        -0.5207
     17 N2          0.8162   -2.6595    5.9637 N.am      1 <0>        -0.7085
     18 C10         1.3782   -3.4741    7.0439 C.3       1 <0>         0.1292
     19 H3          1.6394   -4.4594    6.6578 H         1 <0>         0.1303
     20 C11         2.6325   -2.7938    7.5961 C.3       1 <0>        -0.1090
     21 C12         3.7047   -2.7391    6.5060 C.3       1 <0>        -0.0910
     22 S2          5.1644   -1.8662    7.1369 S.3       1 <0>        -0.2626
     23 C13         6.3251   -1.8877    5.7431 C.3       1 <0>        -0.1188
     24 C14         0.3598   -3.6199    8.1451 C.2       1 <0>         0.5146
     25 O4         -0.7283   -3.0950    8.0381 O.2       1 <0>        -0.5135
     26 N3          0.6582   -4.3335    9.2488 N.am      1 <0>        -0.7268
     27 C15        -0.3319   -4.4753   10.3193 C.3       1 <0>         0.1462
     28 C16         0.2462   -5.3132   11.4305 C.ar      1 <0>        -0.0392
     29 C17         0.0890   -6.6876   11.4100 C.ar      1 <0>        -0.0952
     30 C18         0.6156   -7.4603   12.4246 C.ar      1 <0>        -0.0576
     31 C19         1.3081   -6.8528   13.4724 C.ar      1 <0>        -0.1496
     32 C20         1.4635   -5.4664   13.4870 C.ar      1 <0>        -0.0576
     33 C21         0.9368   -4.7053   12.4638 C.ar      1 <0>        -0.0946
     34 C22         1.8749   -7.6755   14.5640 C.cat     1 <0>         0.6000
     35 N4          2.5353   -7.0929   15.5626 N.pl3     1 <0>        -0.7603
     36 N5          1.7245   -8.9983   14.5475 N.pl3     1 <0>        -0.7603
     37 H4         -0.1345    0.9822   -1.2716 H         1 <0>         0.0598
     38 H5         -1.8542    1.2736   -1.6268 H         1 <0>         0.0653
     39 H6         -1.1942    1.6837   -0.0253 H         1 <0>         0.0594
     40 H7         -2.4910   -0.4281    0.0607 H         1 <0>         0.0787
     41 H8         -1.4313   -1.1296   -1.1856 H         1 <0>         0.0821
     42 H9          0.5237   -0.8355    0.3112 H         1 <0>         0.1381
     43 H10        -0.5361   -0.1340    1.5574 H         1 <0>         0.1343
     44 H11         0.9138   -3.6534    2.1684 H         1 <0>         0.4300
     45 H12         2.2609   -0.7682    5.3201 H         1 <0>         0.0638
     46 H13         2.4628    0.6769    4.3008 H         1 <0>         0.0723
     47 H14         0.8442    0.2152    4.8797 H         1 <0>         0.0651
     48 H15         3.7316   -0.9435    2.9575 H         1 <0>         0.0675
     49 H16         3.1357   -2.5021    3.5772 H         1 <0>         0.0718
     50 H17         3.7824   -2.6620    1.1810 H         1 <0>         0.0583
     51 H18         2.0419   -2.9581    1.4074 H         1 <0>         0.0680
     52 H19         2.6040   -1.3878    0.7857 H         1 <0>         0.0546
     53 H20         0.2759   -1.8818    6.1736 H         1 <0>         0.4144
     54 H21         2.3861   -1.7809    7.9146 H         1 <0>         0.0873
     55 H22         3.0086   -3.3611    8.4475 H         1 <0>         0.0871
     56 H23         3.9835   -3.7531    6.2193 H         1 <0>         0.0869
     57 H24         3.3128   -2.2105    5.6370 H         1 <0>         0.0903
     58 H25         7.2459   -1.3793    6.0292 H         1 <0>         0.1047
     59 H26         6.5488   -2.9195    5.4724 H         1 <0>         0.0779
     60 H27         5.8781   -1.3770    4.8901 H         1 <0>         0.0784
     61 H28         1.5284   -4.7533    9.3344 H         1 <0>         0.4047
     62 H29        -0.5930   -3.4900   10.7054 H         1 <0>         0.0926
     63 H30        -1.2254   -4.9599    9.9260 H         1 <0>         0.0919
     64 H31        -0.4472   -7.1566   10.5983 H         1 <0>         0.1515
     65 H32         0.4916   -8.5330   12.4079 H         1 <0>         0.1408
     66 H33         1.9983   -4.9903   14.2956 H         1 <0>         0.1410
     67 H34         1.0599   -3.6324   12.4718 H         1 <0>         0.1519
     68 H35         2.6448   -6.1292   15.5746 H         1 <0>         0.4446
     69 H36         1.2434   -9.4228   13.8200 H         1 <0>         0.4447
     70 H37         2.0960   -9.5376   15.2631 H         1 <0>         0.4345
     71 H38         2.9068   -7.6322   16.2782 H         1 <0>         0.4345
@<TRIPOS>BOND
     1    1    2 1
     2    1   37 1
     3    1   38 1
     4    1   39 1
     5    2    3 1
     6    2   40 1
     7    2   41 1
     8    3    4 1
     9    3   42 1
    10    3   43 1
    11    4    5 2
    12    4    6 2
    13    4    7 1
    14    7    8 1
    15    7   44 1
    16    8    9 1
    17    8   10 1
    18    8   15 1
    19   10   11 1
    20   10   12 1
    21   10   13 1
    22   12   45 1
    23   12   46 1
    24   12   47 1
    25   13   14 1
    26   13   48 1
    27   13   49 1
    28   14   50 1
    29   14   51 1
    30   14   52 1
    31   15   16 2
    32   15   17 am
    33   17   18 1
    34   17   53 1
    35   18   19 1
    36   18   20 1
    37   18   24 1
    38   20   21 1
    39   20   54 1
    40   20   55 1
    41   21   22 1
    42   21   56 1
    43   21   57 1
    44   22   23 1
    45   23   58 1
    46   23   59 1
    47   23   60 1
    48   24   25 2
    49   24   26 am
    50   26   27 1
    51   26   61 1
    52   27   28 1
    53   27   62 1
    54   27   63 1
    55   28   33 ar
    56   28   29 ar
    57   29   30 ar
    58   29   64 1
    59   30   31 ar
    60   30   65 1
    61   31   32 ar
    62   31   34 1
    63   32   33 ar
    64   32   66 1
    65   33   67 1
    66   34   35 2
    67   34   36 1
    68   35   68 1
    69   35   71 1
    70   36   69 1
    71   36   70 1
@<TRIPOS>MOLECULE
CHEMBL526453
   75    76     0     0     0
SMALL
USER_CHARGES

@<TRIPOS>ATOM
      1 C1         -0.0122    0.8487    1.1089 C.3       1 <0>        -0.1553
      2 C2          0.1251   -0.5712    0.5557 C.3       1 <0>        -0.1223
      3 C3          0.7890   -0.5199   -0.8218 C.3       1 <0>        -0.1134
      4 H1          1.7379    0.0115   -0.7482 H         1 <0>         0.0924
      5 C4         -0.1295    0.2100   -1.8038 C.3       1 <0>        -0.1650
      6 C5          1.0397   -1.9445   -1.3204 C.3       1 <0>         0.1340
      7 H2          1.4908   -1.9082   -2.3121 H         1 <0>         0.1181
      8 C6         -0.2683   -2.6896   -1.3905 C.2       1 <0>         0.5291
      9 O1         -0.6114   -3.4003   -0.4696 O.2       1 <0>        -0.5180
     10 N1         -1.0569   -2.5661   -2.4765 N.am      1 <0>        -0.7115
     11 C7         -2.2661   -3.3838   -2.6005 C.3       1 <0>         0.1339
     12 H3         -2.0871   -4.3659   -2.1628 H         1 <0>         0.1214
     13 C8         -3.4212   -2.7007   -1.8656 C.3       1 <0>        -0.1093
     14 C9         -3.1158   -2.6543   -0.3671 C.3       1 <0>        -0.0812
     15 S1         -4.4853   -1.8444    0.5043 S.3       1 <0>        -0.2784
     16 C10        -3.9742   -1.8697    2.2446 C.3       1 <0>        -0.1141
     17 C11        -2.6198   -3.5399   -4.0571 C.2       1 <0>         0.5184
     18 O2         -1.9298   -3.0194   -4.9078 O.2       1 <0>        -0.5154
     19 N2         -3.7030   -4.2579   -4.4143 N.am      1 <0>        -0.7254
     20 C12        -4.0469   -4.4096   -5.8303 C.3       1 <0>         0.1464
     21 C13        -5.2908   -5.2507   -5.9578 C.ar      1 <0>        -0.0399
     22 C14        -5.1843   -6.6256   -6.0683 C.ar      1 <0>        -0.0950
     23 C15        -6.3194   -7.4012   -6.1858 C.ar      1 <0>        -0.0577
     24 C16        -7.5765   -6.7961   -6.1925 C.ar      1 <0>        -0.1492
     25 C17        -7.6771   -5.4091   -6.0803 C.ar      1 <0>        -0.0575
     26 C18        -6.5347   -4.6451   -5.9582 C.ar      1 <0>        -0.0944
     27 C19        -8.7978   -7.6219   -6.3187 C.cat     1 <0>         0.5999
     28 N3         -9.9961   -7.0415   -6.3249 N.pl3     1 <0>        -0.7602
     29 N4         -8.6985   -8.9453   -6.4261 N.pl3     1 <0>        -0.7603
     30 N5          1.9450   -2.6329   -0.3970 N.pl3     1 <0>        -1.1027
     31 S2          3.5725   -2.6630   -0.7014 S.o2      1 <0>         2.6048
     32 O3          4.1268   -3.4214    0.3648 O.2       1 <0>        -0.9410
     33 O4          3.6819   -3.1139   -2.0445 O.2       1 <0>        -0.9455
     34 C20         4.1019   -0.9323   -0.5783 C.3       1 <0>        -0.5822
     35 C21         5.5831   -0.8402   -0.8401 C.ar      1 <0>        -0.0995
     36 C22         6.4784   -0.9527    0.2072 C.ar      1 <0>        -0.1036
     37 C23         7.8371   -0.8683   -0.0330 C.ar      1 <0>        -0.1161
     38 C24         8.3005   -0.6717   -1.3204 C.ar      1 <0>        -0.1061
     39 C25         7.4053   -0.5601   -2.3678 C.ar      1 <0>        -0.1167
     40 C26         6.0467   -0.6489   -2.1282 C.ar      1 <0>        -0.1041
     41 H4          0.9756    1.3009    1.1982 H         1 <0>         0.0565
     42 H5         -0.6247    1.4446    0.4322 H         1 <0>         0.0592
     43 H6         -0.4852    0.8122    2.0902 H         1 <0>         0.0568
     44 H7          0.7377   -1.1670    1.2323 H         1 <0>         0.0705
     45 H8         -0.8626   -1.0234    0.4664 H         1 <0>         0.0651
     46 H9         -1.0863   -0.3091   -1.8607 H         1 <0>         0.0626
     47 H10        -0.2904    1.2318   -1.4600 H         1 <0>         0.0759
     48 H11         0.3337    0.2272   -2.7903 H         1 <0>         0.0653
     49 H12        -0.8237   -1.9359   -3.1761 H         1 <0>         0.4156
     50 H13        -3.5424   -1.6855   -2.2433 H         1 <0>         0.0850
     51 H14        -4.3404   -3.2624   -2.0318 H         1 <0>         0.0839
     52 H15        -2.9946   -3.6696    0.0107 H         1 <0>         0.0896
     53 H16        -2.1966   -2.0926   -0.2008 H         1 <0>         0.0957
     54 H17        -3.8349   -2.9015    2.5675 H         1 <0>         0.0774
     55 H18        -3.0369   -1.3245    2.3560 H         1 <0>         0.0775
     56 H19        -4.7436   -1.3984    2.8562 H         1 <0>         0.1026
     57 H20        -4.2550   -4.6742   -3.7339 H         1 <0>         0.4057
     58 H21        -4.2259   -3.4275   -6.2680 H         1 <0>         0.0931
     59 H22        -3.2240   -4.8963   -6.3539 H         1 <0>         0.0927
     60 H23        -4.2106   -7.0928   -6.0629 H         1 <0>         0.1516
     61 H24        -6.2349   -8.4744   -6.2727 H         1 <0>         0.1409
     62 H25        -8.6474   -4.9348   -6.0852 H         1 <0>         0.1411
     63 H26        -6.6115   -3.5717   -5.8671 H         1 <0>         0.1519
     64 H27       -10.7968   -7.5828   -6.4076 H         1 <0>         0.4346
     65 H28        -7.8255   -9.3681   -6.4217 H         1 <0>         0.4447
     66 H29        -9.4992   -9.4866   -6.5089 H         1 <0>         0.4346
     67 H30         1.5911   -3.0711    0.3927 H         1 <0>         0.4282
     68 H31         3.5649   -0.3348   -1.3150 H         1 <0>         0.1417
     69 H32         3.8856   -0.5565    0.4218 H         1 <0>         0.1459
     70 H33         6.1163   -1.1063    1.2130 H         1 <0>         0.1307
     71 H34         8.5365   -0.9554    0.7853 H         1 <0>         0.1312
     72 H35         9.3620   -0.6050   -1.5079 H         1 <0>         0.1296
     73 H36         7.7674   -0.4063   -3.3736 H         1 <0>         0.1308
     74 H37         5.3474   -0.5654   -2.9470 H         1 <0>         0.1299
     75 H38       -10.0685   -6.0774   -6.2466 H         1 <0>         0.4447
@<TRIPOS>BOND
     1    1    2 1
     2    1   41 1
     3    1   42 1
     4    1   43 1
     5    2    3 1
     6    2   44 1
     7    2   45 1
     8    3    4 1
     9    3    5 1
    10    3    6 1
    11    5   46 1
    12    5   47 1
    13    5   48 1
    14    6    7 1
    15    6    8 1
    16    6   30 1
    17    8    9 2
    18    8   10 am
    19   10   11 1
    20   10   49 1
    21   11   12 1
    22   11   13 1
    23   11   17 1
    24   13   14 1
    25   13   50 1
    26   13   51 1
    27   14   15 1
    28   14   52 1
    29   14   53 1
    30   15   16 1
    31   16   54 1
    32   16   55 1
    33   16   56 1
    34   17   18 2
    35   17   19 am
    36   19   20 1
    37   19   57 1
    38   20   21 1
    39   20   58 1
    40   20   59 1
    41   21   26 ar
    42   21   22 ar
    43   22   23 ar
    44   22   60 1
    45   23   24 ar
    46   23   61 1
    47   24   25 ar
    48   24   27 1
    49   25   26 ar
    50   25   62 1
    51   26   63 1
    52   27   28 2
    53   27   29 1
    54   28   64 1
    55   28   75 1
    56   29   65 1
    57   29   66 1
    58   30   31 1
    59   30   67 1
    60   31   32 2
    61   31   33 2
    62   31   34 1
    63   34   35 1
    64   34   68 1
    65   34   69 1
    66   35   40 ar
    67   35   36 ar
    68   36   37 ar
    69   36   70 1
    70   37   38 ar
    71   37   71 1
    72   38   39 ar
    73   38   72 1
    74   39   40 ar
    75   39   73 1
    76   40   74 1
@<TRIPOS>MOLECULE
CHEMBL122151
   60    62     0     0     0
SMALL
USER_CHARGES

@<TRIPOS>ATOM
      1 C1         -0.0197    1.5043   -0.0106 C.3       1 <0>        -0.1595
      2 C2          0.0007   -0.0256   -0.0066 C.3       1 <0>         0.1865
      3 C3         -1.4133   -0.5468    0.0092 C.ar      1 <0>        -0.1022
      4 C4         -2.1236   -0.5822    1.1946 C.ar      1 <0>        -0.1120
      5 C5         -3.4206   -1.0602    1.2091 C.ar      1 <0>        -0.1085
      6 C6         -4.0074   -1.5024    0.0382 C.ar      1 <0>        -0.0678
      7 C7         -3.2973   -1.4662   -1.1473 C.ar      1 <0>        -0.1075
      8 C8         -2.0019   -0.9841   -1.1626 C.ar      1 <0>        -0.1018
      9 C9         -5.4209   -2.0245    0.0542 C.3       1 <0>        -0.0452
     10 C10        -6.3792   -0.8876   -0.1914 C.ar      1 <0>        -0.0797
     11 C11        -6.8758   -0.1598    0.8737 C.ar      1 <0>        -0.1149
     12 C12        -7.7547    0.8830    0.6484 C.ar      1 <0>        -0.1176
     13 C13        -8.1367    1.1984   -0.6421 C.ar      1 <0>        -0.1217
     14 C14        -7.6394    0.4712   -1.7074 C.ar      1 <0>        -0.1170
     15 C15        -6.7571   -0.5689   -1.4824 C.ar      1 <0>        -0.1145
     16 N1          0.7099   -0.5014    1.1837 N.am      1 <0>        -0.7154
     17 C16         2.0530   -0.6123    1.1686 C.2       1 <0>         0.5111
     18 O1          2.6745   -0.3182    0.1695 O.2       1 <0>        -0.5342
     19 C17         2.7825   -1.1017    2.3930 C.3       1 <0>         0.1157
     20 N2          4.2222   -1.1325    2.1240 N.am      1 <0>        -0.7197
     21 C18         5.0782   -1.5401    3.0819 C.2       1 <0>         0.7103
     22 O2          4.6556   -1.8822    4.1693 O.2       1 <0>        -0.5657
     23 N3          6.4028   -1.5685    2.8343 N.am      1 <0>        -0.6839
     24 C19         7.2959   -1.8977    3.8538 C.ar      1 <0>         0.2467
     25 C20         6.9410   -2.8456    4.8082 C.ar      1 <0>        -0.1244
     26 C21         7.8204   -3.1724    5.8161 C.ar      1 <0>        -0.0327
     27 C22         9.0700   -2.5515    5.8794 C.ar      1 <0>        -0.1854
     28 C23         9.4235   -1.6004    4.9193 C.ar      1 <0>        -0.0306
     29 C24         8.5419   -1.2817    3.9109 C.ar      1 <0>        -0.1495
     30 C25        10.0156   -2.8995    6.9598 C.cat     1 <0>         0.6033
     31 N4         11.2073   -2.3063    7.0189 N.pl3     1 <0>        -0.7664
     32 N5          9.6768   -3.8066    7.8752 N.pl3     1 <0>        -0.7653
     33 H1          1.0030    1.8812   -0.0221 H         1 <0>         0.0647
     34 H2         -0.5474    1.8583   -0.8963 H         1 <0>         0.0723
     35 H3         -0.5292    1.8632    0.8836 H         1 <0>         0.0610
     36 H4          0.5102   -0.3845   -0.9008 H         1 <0>         0.0994
     37 H5         -1.6651   -0.2367    2.1094 H         1 <0>         0.1197
     38 H6         -3.9753   -1.0886    2.1353 H         1 <0>         0.1241
     39 H7         -3.7557   -1.8120   -2.0620 H         1 <0>         0.1253
     40 H8         -1.4484   -0.9523   -2.0895 H         1 <0>         0.1254
     41 H9         -5.5399   -2.7752   -0.7270 H         1 <0>         0.0844
     42 H10        -5.6314   -2.4738    1.0248 H         1 <0>         0.0840
     43 H11        -6.5773   -0.4062    1.8820 H         1 <0>         0.1198
     44 H12        -8.1432    1.4512    1.4807 H         1 <0>         0.1223
     45 H13        -8.8240    2.0127   -0.8182 H         1 <0>         0.1222
     46 H14        -7.9381    0.7173   -2.7156 H         1 <0>         0.1228
     47 H15        -6.3657   -1.1347   -2.3149 H         1 <0>         0.1205
     48 H16         0.2128   -0.7366    1.9828 H         1 <0>         0.4045
     49 H17         2.5832   -0.4295    3.2276 H         1 <0>         0.1060
     50 H18         2.4383   -2.1049    2.6443 H         1 <0>         0.1063
     51 H19         4.5594   -0.8596    1.2564 H         1 <0>         0.4147
     52 H20         6.7349   -1.3599    1.9471 H         1 <0>         0.4206
     53 H21         5.9747   -3.3254    4.7587 H         1 <0>         0.1647
     54 H22         7.5440   -3.9079    6.5571 H         1 <0>         0.1402
     55 H23        10.3890   -1.1186    4.9656 H         1 <0>         0.1413
     56 H24         8.8162   -0.5494    3.1659 H         1 <0>         0.1515
     57 H25        11.8282   -2.5348    7.7283 H         1 <0>         0.4323
     58 H26         8.8092   -4.2384    7.8322 H         1 <0>         0.4438
     59 H27        10.2976   -4.0351    8.5846 H         1 <0>         0.4323
     60 H28        11.4539   -1.6459    6.3525 H         1 <0>         0.4431
@<TRIPOS>BOND
     1    1    2 1
     2    1   33 1
     3    1   34 1
     4    1   35 1
     5    2    3 1
     6    2   16 1
     7    2   36 1
     8    3    8 ar
     9    3    4 ar
    10    4    5 ar
    11    4   37 1
    12    5    6 ar
    13    5   38 1
    14    6    7 ar
    15    6    9 1
    16    7    8 ar
    17    7   39 1
    18    8   40 1
    19    9   10 1
    20    9   41 1
    21    9   42 1
    22   10   15 ar
    23   10   11 ar
    24   11   12 ar
    25   11   43 1
    26   12   13 ar
    27   12   44 1
    28   13   14 ar
    29   13   45 1
    30   14   15 ar
    31   14   46 1
    32   15   47 1
    33   16   17 am
    34   16   48 1
    35   17   18 2
    36   17   19 1
    37   19   20 1
    38   19   49 1
    39   19   50 1
    40   20   21 am
    41   20   51 1
    42   21   22 2
    43   21   23 am
    44   23   24 1
    45   23   52 1
    46   24   29 ar
    47   24   25 ar
    48   25   26 ar
    49   25   53 1
    50   26   27 ar
    51   26   54 1
    52   27   28 ar
    53   27   30 1
    54   28   29 ar
    55   28   55 1
    56   29   56 1
    57   30   31 2
    58   30   32 1
    59   31   57 1
    60   31   60 1
    61   32   58 1
    62   32   59 1
@<TRIPOS>MOLECULE
CHEMBL122151__1
   60    62     0     0     0
SMALL
USER_CHARGES

@<TRIPOS>ATOM
      1 C1         -0.0367    1.5475    0.0184 C.3       1 <0>        -0.1593
      2 C2         -0.0054    0.0179    0.0034 C.3       1 <0>         0.1863
      3 C3          0.7281   -0.4816    1.2214 C.ar      1 <0>        -0.1020
      4 C4          0.0797   -0.5465    2.4405 C.ar      1 <0>        -0.1120
      5 C5          0.7526   -1.0046    3.5577 C.ar      1 <0>        -0.1084
      6 C6          2.0738   -1.3983    3.4558 C.ar      1 <0>        -0.0678
      7 C7          2.7219   -1.3342    2.2365 C.ar      1 <0>        -0.1074
      8 C8          2.0478   -0.8801    1.1183 C.ar      1 <0>        -0.1019
      9 C9          2.8076   -1.8968    4.6739 C.3       1 <0>        -0.0461
     10 C10         2.6346   -3.3894    4.7888 C.ar      1 <0>        -0.0783
     11 C11         1.5674   -3.9090    5.4974 C.ar      1 <0>        -0.1150
     12 C12         1.4087   -5.2781    5.6028 C.ar      1 <0>        -0.1181
     13 C13         2.3169   -6.1277    4.9992 C.ar      1 <0>        -0.1226
     14 C14         3.3835   -5.6081    4.2898 C.ar      1 <0>        -0.1172
     15 C15         3.5398   -4.2389    4.1808 C.ar      1 <0>        -0.1144
     16 N1         -1.3763   -0.4987    0.0130 N.am      1 <0>        -0.7156
     17 C16        -2.0551   -0.6299   -1.1439 C.2       1 <0>         0.5112
     18 O1         -1.5311   -0.3204   -2.1929 O.2       1 <0>        -0.5341
     19 C17        -3.4653   -1.1613   -1.1340 C.3       1 <0>         0.1156
     20 N2         -3.9793   -1.2076   -2.5051 N.am      1 <0>        -0.7196
     21 C18        -5.2295   -1.6524   -2.7414 C.2       1 <0>         0.7102
     22 O2         -5.9306   -2.0152   -1.8167 O.2       1 <0>        -0.5657
     23 N3         -5.7024   -1.6950   -4.0027 N.am      1 <0>        -0.6838
     24 C19        -6.9588   -2.2442   -4.2583 C.ar      1 <0>         0.2467
     25 C20        -7.9893   -2.0771   -3.3390 C.ar      1 <0>        -0.1244
     26 C21        -9.2306   -2.6184   -3.5882 C.ar      1 <0>        -0.0328
     27 C22        -9.4546   -3.3355   -4.7658 C.ar      1 <0>        -0.1854
     28 C23        -8.4179   -3.5011   -5.6872 C.ar      1 <0>        -0.0307
     29 C24        -7.1802   -2.9530   -5.4347 C.ar      1 <0>        -0.1494
     30 C25       -10.7851   -3.9180   -5.0360 C.cat     1 <0>         0.6033
     31 N4        -10.9973   -4.6018   -6.1599 N.pl3     1 <0>        -0.7664
     32 N5        -11.7730   -3.7596   -4.1560 N.pl3     1 <0>        -0.7653
     33 H1          0.9833    1.9318    0.0113 H         1 <0>         0.0725
     34 H2         -0.5673    1.9087   -0.8625 H         1 <0>         0.0648
     35 H3         -0.5483    1.8916    0.9172 H         1 <0>         0.0612
     36 H4          0.5062   -0.3263   -0.8954 H         1 <0>         0.0993
     37 H5         -0.9525   -0.2390    2.5201 H         1 <0>         0.1197
     38 H6          0.2462   -1.0547    4.5103 H         1 <0>         0.1242
     39 H7          3.7543   -1.6414    2.1569 H         1 <0>         0.1253
     40 H8          2.5531   -0.8335    0.1650 H         1 <0>         0.1254
     41 H9          3.8676   -1.6599    4.5818 H         1 <0>         0.0849
     42 H10         2.4036   -1.4146    5.5641 H         1 <0>         0.0846
     43 H11         0.8579   -3.2452    5.9690 H         1 <0>         0.1202
     44 H12         0.5754   -5.6840    6.1570 H         1 <0>         0.1219
     45 H13         2.1932   -7.1974    5.0821 H         1 <0>         0.1217
     46 H14         4.0932   -6.2719    3.8185 H         1 <0>         0.1225
     47 H15         4.3711   -3.8330    3.6235 H         1 <0>         0.1208
     48 H16        -1.7954   -0.7462    0.8520 H         1 <0>         0.4045
     49 H17        -3.4724   -2.1651   -0.7092 H         1 <0>         0.1059
     50 H18        -4.0958   -0.5074   -0.5315 H         1 <0>         0.1063
     51 H19        -3.4200   -0.9182   -3.2428 H         1 <0>         0.4146
     52 H20        -5.1690   -1.3438   -4.7328 H         1 <0>         0.4206
     53 H21        -7.8156   -1.5226   -2.4286 H         1 <0>         0.1646
     54 H22       -10.0301   -2.4890   -2.8737 H         1 <0>         0.1402
     55 H23        -8.5880   -4.0550   -6.5986 H         1 <0>         0.1413
     56 H24        -6.3794   -3.0772   -6.1485 H         1 <0>         0.1515
     57 H25       -11.8708   -4.9843   -6.3373 H         1 <0>         0.4323
     58 H26       -11.6186   -3.2618   -3.3379 H         1 <0>         0.4438
     59 H27       -12.6466   -4.1420   -4.3334 H         1 <0>         0.4323
     60 H28       -10.2781   -4.7172   -6.8005 H         1 <0>         0.4431
@<TRIPOS>BOND
     1    1    2 1
     2    1   33 1
     3    1   34 1
     4    1   35 1
     5    2    3 1
     6    2   16 1
     7    2   36 1
     8    3    8 ar
     9    3    4 ar
    10    4    5 ar
    11    4   37 1
    12    5    6 ar
    13    5   38 1
    14    6    7 ar
    15    6    9 1
    16    7    8 ar
    17    7   39 1
    18    8   40 1
    19    9   10 1
    20    9   41 1
    21    9   42 1
    22   10   15 ar
    23   10   11 ar
    24   11   12 ar
    25   11   43 1
    26   12   13 ar
    27   12   44 1
    28   13   14 ar
    29   13   45 1
    30   14   15 ar
    31   14   46 1
    32   15   47 1
    33   16   17 am
    34   16   48 1
    35   17   18 2
    36   17   19 1
    37   19   20 1
    38   19   49 1
    39   19   50 1
    40   20   21 am
    41   20   51 1
    42   21   22 2
    43   21   23 am
    44   23   24 1
    45   23   52 1
    46   24   29 ar
    47   24   25 ar
    48   25   26 ar
    49   25   53 1
    50   26   27 ar
    51   26   54 1
    52   27   28 ar
    53   27   30 1
    54   28   29 ar
    55   28   55 1
    56   29   56 1
    57   30   31 2
    58   30   32 1
    59   31   57 1
    60   31   60 1
    61   32   58 1
    62   32   59 1
@<TRIPOS>MOLECULE
CHEMBL122854
   58    60     0     0     0
SMALL
USER_CHARGES

@<TRIPOS>ATOM
      1 C1          0.0394    1.5216   -0.3281 C.3       1 <0>        -0.1601
      2 C2          0.0856   -0.0075   -0.3073 C.3       1 <0>         0.1903
      3 C3         -1.3120   -0.5503   -0.1553 C.ar      1 <0>        -0.1328
      4 C4         -1.9091   -0.5799    1.0914 C.ar      1 <0>        -0.0753
      5 C5         -3.1903   -1.0764    1.2334 C.ar      1 <0>        -0.1909
      6 C6         -3.8781   -1.5458    0.1234 C.ar      1 <0>         0.1298
      7 C7         -3.2765   -1.5150   -1.1266 C.ar      1 <0>        -0.1392
      8 C8         -1.9971   -1.0126   -1.2639 C.ar      1 <0>        -0.0659
      9 O1         -5.1383   -2.0352    0.2604 O.3       1 <0>        -0.2564
     10 C9         -5.6490   -2.1401    1.5153 C.ar      1 <0>         0.0795
     11 C10        -6.0846   -1.0059    2.1854 C.ar      1 <0>        -0.1343
     12 C11        -6.6034   -1.1153    3.4610 C.ar      1 <0>        -0.1048
     13 C12        -6.6883   -2.3536    4.0702 C.ar      1 <0>        -0.1160
     14 C13        -6.2545   -3.4854    3.4048 C.ar      1 <0>        -0.1041
     15 C14        -5.7411   -3.3824    2.1266 C.ar      1 <0>        -0.1206
     16 N1          0.9087   -0.4559    0.8187 N.am      1 <0>        -0.7158
     17 C15         2.2464   -0.5461    0.6817 C.2       1 <0>         0.5113
     18 O2          2.7689   -0.2562   -0.3737 O.2       1 <0>        -0.5336
     19 C16         3.0931   -1.0074    1.8399 C.3       1 <0>         0.1149
     20 N2          4.5025   -1.0195    1.4402 N.am      1 <0>        -0.7188
     21 C17         5.4493   -1.4006    2.3205 C.2       1 <0>         0.7092
     22 O3          5.1338   -1.7342    3.4462 O.2       1 <0>        -0.5627
     23 N3          6.7459   -1.4118    1.9528 N.am      1 <0>        -0.6789
     24 C18         7.7118   -1.9246    2.8184 C.ar      1 <0>         0.2522
     25 C19         7.3602   -2.8876    3.7587 C.ar      1 <0>        -0.1349
     26 C20         8.3115   -3.3954    4.6150 C.ar      1 <0>        -0.0289
     27 C21         9.6308   -2.9430    4.5384 C.ar      1 <0>        -0.1912
     28 C22         9.9808   -1.9762    3.5929 C.ar      1 <0>        -0.0262
     29 C23         9.0261   -1.4761    2.7359 C.ar      1 <0>        -0.1563
     30 C24        10.6537   -3.4854    5.4560 C.cat     1 <0>         0.6035
     31 N4         11.9119   -3.0528    5.3818 N.pl3     1 <0>        -0.7671
     32 N5         10.3182   -4.4073    6.3578 N.pl3     1 <0>        -0.7661
     33 H1          1.0503    1.9142   -0.4380 H         1 <0>         0.0647
     34 H2         -0.5729    1.8552   -1.1659 H         1 <0>         0.0730
     35 H3         -0.3920    1.8849    0.6046 H         1 <0>         0.0607
     36 H4          0.5171   -0.3708   -1.2400 H         1 <0>         0.1002
     37 H5         -1.3732   -0.2147    1.9551 H         1 <0>         0.1237
     38 H6         -3.6561   -1.0996    2.2075 H         1 <0>         0.1328
     39 H7         -3.8097   -1.8798   -1.9921 H         1 <0>         0.1375
     40 H8         -1.5301   -0.9843   -2.2373 H         1 <0>         0.1352
     41 H9         -6.0178   -0.0383    1.7102 H         1 <0>         0.1309
     42 H10        -6.9425   -0.2327    3.9830 H         1 <0>         0.1320
     43 H11        -7.0939   -2.4369    5.0677 H         1 <0>         0.1305
     44 H12        -6.3216   -4.4514    3.8831 H         1 <0>         0.1330
     45 H13        -5.4068   -4.2673    1.6054 H         1 <0>         0.1324
     46 H14         0.4909   -0.6878    1.6628 H         1 <0>         0.4040
     47 H15         2.9598   -0.3270    2.6810 H         1 <0>         0.1065
     48 H16         2.7901   -2.0123    2.1340 H         1 <0>         0.1066
     49 H17         4.7542   -0.7534    0.5421 H         1 <0>         0.4150
     50 H18         7.0072   -1.0633    1.0861 H         1 <0>         0.4210
     51 H19         6.3400   -3.2371    3.8174 H         1 <0>         0.1677
     52 H20         8.0377   -4.1426    5.3452 H         1 <0>         0.1398
     53 H21        11.0000   -1.6244    3.5313 H         1 <0>         0.1411
     54 H22         9.2969   -0.7316    2.0019 H         1 <0>         0.1513
     55 H23        12.5835   -3.4089    5.9842 H         1 <0>         0.4320
     56 H24         9.4024   -4.7222    6.4118 H         1 <0>         0.4436
     57 H25        10.9899   -4.7634    6.9602 H         1 <0>         0.4321
     58 H26        12.1561   -2.3817    4.7253 H         1 <0>         0.4429
@<TRIPOS>BOND
     1    1    2 1
     2    1   33 1
     3    1   34 1
     4    1   35 1
     5    2    3 1
     6    2   16 1
     7    2   36 1
     8    3    8 ar
     9    3    4 ar
    10    4    5 ar
    11    4   37 1
    12    5    6 ar
    13    5   38 1
    14    6    7 ar
    15    6    9 1
    16    7    8 ar
    17    7   39 1
    18    8   40 1
    19    9   10 1
    20   10   15 ar
    21   10   11 ar
    22   11   12 ar
    23   11   41 1
    24   12   13 ar
    25   12   42 1
    26   13   14 ar
    27   13   43 1
    28   14   15 ar
    29   14   44 1
    30   15   45 1
    31   16   17 am
    32   16   46 1
    33   17   18 2
    34   17   19 1
    35   19   20 1
    36   19   47 1
    37   19   48 1
    38   20   21 am
    39   20   49 1
    40   21   22 2
    41   21   23 am
    42   23   24 1
    43   23   50 1
    44   24   29 ar
    45   24   25 ar
    46   25   26 ar
    47   25   51 1
    48   26   27 ar
    49   26   52 1
    50   27   28 ar
    51   27   30 1
    52   28   29 ar
    53   28   53 1
    54   29   54 1
    55   30   31 2
    56   30   32 1
    57   31   55 1
    58   31   58 1
    59   32   56 1
    60   32   57 1
@<TRIPOS>MOLECULE
CHEMBL122854__1
   58    60     0     0     0
SMALL
USER_CHARGES

@<TRIPOS>ATOM
      1 C1          0.1795    1.5289   -0.1131 C.3       1 <0>        -0.1599
      2 C2          0.2324    0.0019   -0.1941 C.3       1 <0>         0.1902
      3 C3          0.8753   -0.5454    1.0543 C.ar      1 <0>        -0.1328
      4 C4          0.1332   -0.6719    2.2141 C.ar      1 <0>        -0.0754
      5 C5          0.7198   -1.1737    3.3596 C.ar      1 <0>        -0.1908
      6 C6          2.0551   -1.5509    3.3456 C.ar      1 <0>         0.1298
      7 C7          2.7975   -1.4229    2.1804 C.ar      1 <0>        -0.1391
      8 C8          2.2046   -0.9254    1.0362 C.ar      1 <0>        -0.0660
      9 O1          2.6347   -2.0443    4.4712 O.3       1 <0>        -0.2565
     10 C9          1.8998   -2.0575    5.6141 C.ar      1 <0>         0.0794
     11 C10         0.9022   -3.0061    5.7880 C.ar      1 <0>        -0.1350
     12 C11         0.1564   -3.0172    6.9508 C.ar      1 <0>        -0.1056
     13 C12         0.4030   -2.0838    7.9406 C.ar      1 <0>        -0.1160
     14 C13         1.3963   -1.1371    7.7696 C.ar      1 <0>        -0.1032
     15 C14         2.1493   -1.1258    6.6116 C.ar      1 <0>        -0.1198
     16 N1         -1.1279   -0.5281   -0.3154 N.am      1 <0>        -0.7159
     17 C15        -1.7125   -0.6131   -1.5268 C.2       1 <0>         0.5112
     18 O2         -1.1123   -0.2508   -2.5165 O.2       1 <0>        -0.5336
     19 C16        -3.1118   -1.1582   -1.6517 C.3       1 <0>         0.1149
     20 N2         -3.5165   -1.1470   -3.0596 N.am      1 <0>        -0.7188
     21 C17        -4.7383   -1.5928   -3.4132 C.2       1 <0>         0.7092
     22 O3         -5.5045   -2.0044   -2.5637 O.2       1 <0>        -0.5628
     23 N3         -5.1106   -1.5825   -4.7085 N.am      1 <0>        -0.6789
     24 C18        -6.4160   -1.9238   -5.0617 C.ar      1 <0>         0.2522
     25 C19        -7.4520   -1.7392   -4.1518 C.ar      1 <0>        -0.1349
     26 C20        -8.7417   -2.0757   -4.4973 C.ar      1 <0>        -0.0290
     27 C21        -9.0093   -2.6024   -5.7631 C.ar      1 <0>        -0.1912
     28 C22        -7.9670   -2.7861   -6.6746 C.ar      1 <0>        -0.0262
     29 C23        -6.6801   -2.4429   -6.3250 C.ar      1 <0>        -0.1563
     30 C24       -10.3919   -2.9648   -6.1368 C.cat     1 <0>         0.6036
     31 N4        -10.6457   -3.4672   -7.3446 N.pl3     1 <0>        -0.7671
     32 N5        -11.3852   -2.7894   -5.2661 N.pl3     1 <0>        -0.7661
     33 H1          1.1917    1.9232   -0.0228 H         1 <0>         0.0729
     34 H2         -0.2854    1.9247   -1.0160 H         1 <0>         0.0646
     35 H3         -0.4053    1.8265    0.7572 H         1 <0>         0.0606
     36 H4          0.8173   -0.2957   -1.0644 H         1 <0>         0.1003
     37 H5         -0.9060   -0.3778    2.2245 H         1 <0>         0.1235
     38 H6          0.1399   -1.2720    4.2653 H         1 <0>         0.1328
     39 H7          3.8370   -1.7157    2.1670 H         1 <0>         0.1376
     40 H8          2.7808   -0.8297    0.1278 H         1 <0>         0.1353
     41 H9          0.7087   -3.7349    5.0149 H         1 <0>         0.1300
     42 H10        -0.6202   -3.7553    7.0866 H         1 <0>         0.1314
     43 H11        -0.1814   -2.0940    8.8488 H         1 <0>         0.1305
     44 H12         1.5867   -0.4090    8.5442 H         1 <0>         0.1337
     45 H13         2.9282   -0.3892    6.4806 H         1 <0>         0.1331
     46 H14        -1.6080   -0.8178    0.4761 H         1 <0>         0.4040
     47 H15        -3.1386   -2.1804   -1.2741 H         1 <0>         0.1065
     48 H16        -3.7962   -0.5388   -1.0720 H         1 <0>         0.1066
     49 H17        -2.9052   -0.8186   -3.7374 H         1 <0>         0.4150
     50 H18        -4.4706   -1.3376   -5.3951 H         1 <0>         0.4210
     51 H19        -7.2445   -1.3319   -3.1734 H         1 <0>         0.1677
     52 H20        -9.5455   -1.9328   -3.7903 H         1 <0>         0.1398
     53 H21        -8.1707   -3.1931   -7.6540 H         1 <0>         0.1411
     54 H22        -5.8744   -2.5809   -7.0308 H         1 <0>         0.1513
     55 H23       -11.5534   -3.7052   -7.5900 H         1 <0>         0.4320
     56 H24       -11.2005   -2.4237   -4.3868 H         1 <0>         0.4436
     57 H25       -12.2930   -3.0274   -5.5114 H         1 <0>         0.4321
     58 H26        -9.9226   -3.5949   -7.9785 H         1 <0>         0.4429
@<TRIPOS>BOND
     1    1    2 1
     2    1   33 1
     3    1   34 1
     4    1   35 1
     5    2    3 1
     6    2   16 1
     7    2   36 1
     8    3    8 ar
     9    3    4 ar
    10    4    5 ar
    11    4   37 1
    12    5    6 ar
    13    5   38 1
    14    6    7 ar
    15    6    9 1
    16    7    8 ar
    17    7   39 1
    18    8   40 1
    19    9   10 1
    20   10   15 ar
    21   10   11 ar
    22   11   12 ar
    23   11   41 1
    24   12   13 ar
    25   12   42 1
    26   13   14 ar
    27   13   43 1
    28   14   15 ar
    29   14   44 1
    30   15   45 1
    31   16   17 am
    32   16   46 1
    33   17   18 2
    34   17   19 1
    35   19   20 1
    36   19   47 1
    37   19   48 1
    38   20   21 am
    39   20   49 1
    40   21   22 2
    41   21   23 am
    42   23   24 1
    43   23   50 1
    44   24   29 ar
    45   24   25 ar
    46   25   26 ar
    47   25   51 1
    48   26   27 ar
    49   26   52 1
    50   27   28 ar
    51   27   30 1
    52   28   29 ar
    53   28   53 1
    54   29   54 1
    55   30   31 2
    56   30   32 1
    57   31   55 1
    58   31   58 1
    59   32   56 1
    60   32   57 1
@<TRIPOS>MOLECULE
CHEMBL209022
   46    49     0     0     0
SMALL
USER_CHARGES

@<TRIPOS>ATOM
      1 C1         -0.0166    1.3757    0.0096 C.ar      1 <0>        -0.1159
      2 C2          1.1704    2.0862    0.0021 C.ar      1 <0>        -0.0892
      3 C3          2.3817    1.4190   -0.0130 C.ar      1 <0>        -0.1028
      4 C4          2.4124    0.0390   -0.0207 C.ar      1 <0>        -0.0818
      5 C5          1.2199   -0.6818   -0.0132 C.ar      1 <0>        -0.0525
      6 C6          0.0021   -0.0041    0.0020 C.ar      1 <0>        -0.0900
      7 C7          1.2465   -2.1649   -0.0218 C.ar      1 <0>        -0.0607
      8 C8          2.0295   -2.8442   -0.9534 C.ar      1 <0>        -0.0660
      9 C9          2.0568   -4.2252   -0.9638 C.ar      1 <0>        -0.1168
     10 C10         1.3094   -4.9456   -0.0531 C.ar      1 <0>        -0.0830
     11 C11         0.5199   -4.2822    0.8866 C.ar      1 <0>        -0.0935
     12 C12         0.4916   -2.8837    0.9069 C.ar      1 <0>         0.1554
     13 O1         -0.2697   -2.2294    1.8209 O.3       1 <0>        -0.4824
     14 C13        -0.2802   -5.0545    1.8607 C.2       1 <0>         0.1603
     15 C14        -0.4494   -4.7290    3.1670 C.2       1 <0>        -0.1274
     16 C15        -1.3051   -5.7573    3.7534 C.ar      1 <0>        -0.1365
     17 C16        -1.8327   -5.9876    5.0237 C.ar      1 <0>         0.2053
     18 N1         -2.5952   -7.0389    5.2422 N.ar      1 <0>        -0.4601
     19 H1         -1.0090   -6.6423    0.7119 H         1 <0>         0.4368
     20 C17        -2.8903   -7.9070    4.2886 C.ar      1 <0>         0.0982
     21 C18        -2.4123   -7.7573    3.0051 C.ar      1 <0>        -0.1120
     22 C19        -1.6002   -6.6642    2.7124 C.ar      1 <0>         0.1764
     23 N2         -0.9727   -6.2110    1.5799 N.pl3     1 <0>        -0.5535
     24 C20         3.6705    2.2000   -0.0216 C.3       1 <0>         0.1773
     25 N3          4.1016    2.4461    1.3567 N.am      1 <0>        -0.7434
     26 C21         5.2372    3.1316    1.5954 C.2       1 <0>         0.7046
     27 O2          5.9039    3.5457    0.6668 O.2       1 <0>        -0.5902
     28 N4          5.6337    3.3581    2.8634 N.am      1 <0>        -0.8665
     29 H2         -0.9597    1.9019    0.0259 H         1 <0>         0.1299
     30 H3          1.1511    3.1660    0.0077 H         1 <0>         0.1295
     31 H4          3.3589   -0.4811   -0.0328 H         1 <0>         0.1274
     32 H5         -0.9252   -0.5578    0.0079 H         1 <0>         0.1178
     33 H6          2.6167   -2.2889   -1.6699 H         1 <0>         0.1405
     34 H7          2.6660   -4.7446   -1.6887 H         1 <0>         0.1407
     35 H8          1.3359   -6.0252   -0.0686 H         1 <0>         0.1297
     36 H9         -1.1723   -2.0491    1.5243 H         1 <0>         0.3933
     37 H10        -0.0311   -3.8732    3.6760 H         1 <0>         0.1826
     38 H11        -1.6153   -5.3026    5.8299 H         1 <0>         0.2112
     39 H12        -3.5201   -8.7528    4.5216 H         1 <0>         0.2078
     40 H13        -2.6628   -8.4758    2.2387 H         1 <0>         0.1788
     41 H14         4.4374    1.6297   -0.5458 H         1 <0>         0.0777
     42 H15         3.5151    3.1519   -0.5292 H         1 <0>         0.0796
     43 H16         3.5697    2.1158    2.0975 H         1 <0>         0.3972
     44 H17         5.1018    3.0277    3.6043 H         1 <0>         0.3968
     45 H18         6.4511    3.8514    3.0352 H         1 <0>         0.4176
     46 H19        -2.9523   -7.1818    6.1327 H         1 <0>         0.4521
@<TRIPOS>BOND
     1    1    6 ar
     2    1    2 ar
     3    1   29 1
     4    2    3 ar
     5    2   30 1
     6    3    4 ar
     7    3   24 1
     8    4    5 ar
     9    4   31 1
    10    5    6 ar
    11    5    7 1
    12    6   32 1
    13    7   12 ar
    14    7    8 ar
    15    8    9 ar
    16    8   33 1
    17    9   10 ar
    18    9   34 1
    19   10   11 ar
    20   10   35 1
    21   11   12 ar
    22   11   14 1
    23   12   13 1
    24   13   36 1
    25   14   23 1
    26   14   15 2
    27   15   16 1
    28   15   37 1
    29   16   17 ar
    30   16   22 ar
    31   17   18 ar
    32   17   38 1
    33   18   20 ar
    34   18   46 1
    35   19   23 1
    36   20   21 ar
    37   20   39 1
    38   21   22 ar
    39   21   40 1
    40   22   23 1
    41   24   25 1
    42   24   41 1
    43   24   42 1
    44   25   26 am
    45   25   43 1
    46   26   27 2
    47   26   28 am
    48   28   44 1
    49   28   45 1
@<TRIPOS>MOLECULE
CHEMBL208670
   59    63     0     0     0
SMALL
USER_CHARGES

@<TRIPOS>ATOM
      1 C1         -0.0166    1.3757    0.0096 C.ar      1 <0>        -0.1160
      2 C2          1.1704    2.0862    0.0021 C.ar      1 <0>        -0.0890
      3 C3          2.3817    1.4190   -0.0130 C.ar      1 <0>        -0.1024
      4 C4          2.4124    0.0390   -0.0207 C.ar      1 <0>        -0.0815
      5 C5          1.2199   -0.6818   -0.0132 C.ar      1 <0>        -0.0525
      6 C6          0.0021   -0.0041    0.0020 C.ar      1 <0>        -0.0901
      7 C7          1.2465   -2.1649   -0.0218 C.ar      1 <0>        -0.0606
      8 C8          2.0295   -2.8442   -0.9534 C.ar      1 <0>        -0.0660
      9 C9          2.0568   -4.2252   -0.9638 C.ar      1 <0>        -0.1168
     10 C10         1.3094   -4.9456   -0.0531 C.ar      1 <0>        -0.0830
     11 C11         0.5199   -4.2822    0.8866 C.ar      1 <0>        -0.0935
     12 C12         0.4916   -2.8837    0.9069 C.ar      1 <0>         0.1554
     13 O1         -0.2697   -2.2294    1.8209 O.3       1 <0>        -0.4824
     14 C13        -0.2802   -5.0545    1.8607 C.2       1 <0>         0.1603
     15 C14        -0.4494   -4.7290    3.1670 C.2       1 <0>        -0.1274
     16 C15        -1.3051   -5.7573    3.7534 C.ar      1 <0>        -0.1365
     17 C16        -1.8327   -5.9876    5.0237 C.ar      1 <0>         0.2054
     18 N1         -2.5952   -7.0389    5.2422 N.ar      1 <0>        -0.4601
     19 H1         -1.0090   -6.6423    0.7119 H         1 <0>         0.4368
     20 C17        -2.8903   -7.9070    4.2886 C.ar      1 <0>         0.0982
     21 C18        -2.4123   -7.7573    3.0051 C.ar      1 <0>        -0.1120
     22 C19        -1.6002   -6.6642    2.7124 C.ar      1 <0>         0.1764
     23 N2         -0.9727   -6.2110    1.5799 N.pl3     1 <0>        -0.5535
     24 C20         3.6705    2.2000   -0.0216 C.3       1 <0>         0.1786
     25 N3          4.1016    2.4461    1.3567 N.am      1 <0>        -0.7436
     26 C21         5.2372    3.1316    1.5954 C.2       1 <0>         0.7041
     27 O2          5.9039    3.5457    0.6668 O.2       1 <0>        -0.5837
     28 N4          5.6337    3.3581    2.8634 N.am      1 <0>        -0.7464
     29 C22         6.8681    4.1032    3.1229 C.3       1 <0>         0.1420
     30 C23         7.0862    4.2189    4.6328 C.3       1 <0>        -0.0440
     31 C24         8.3560    4.9853    4.8997 C.2       1 <0>        -0.1480
     32 C25         8.5288    6.3194    5.0662 C.2       1 <0>        -0.1491
     33 C26         9.8004    6.8060    5.3045 C.2       1 <0>        -0.1587
     34 C27        10.8371    5.9348    5.3647 C.2       1 <0>        -0.1673
     35 S1         10.0218    4.3710    5.0865 S.3       1 <0>         0.0371
     36 H2         -0.9597    1.9019    0.0259 H         1 <0>         0.1297
     37 H3          1.1511    3.1660    0.0077 H         1 <0>         0.1293
     38 H4          3.3589   -0.4811   -0.0328 H         1 <0>         0.1273
     39 H5         -0.9252   -0.5578    0.0079 H         1 <0>         0.1176
     40 H6          2.6167   -2.2889   -1.6699 H         1 <0>         0.1404
     41 H7          2.6660   -4.7446   -1.6887 H         1 <0>         0.1406
     42 H8          1.3359   -6.0252   -0.0686 H         1 <0>         0.1296
     43 H9         -1.1723   -2.0491    1.5243 H         1 <0>         0.3932
     44 H10        -0.0311   -3.8732    3.6760 H         1 <0>         0.1826
     45 H11        -1.6153   -5.3026    5.8299 H         1 <0>         0.2112
     46 H12        -3.5201   -8.7528    4.5216 H         1 <0>         0.2077
     47 H13        -2.6628   -8.4758    2.2387 H         1 <0>         0.1787
     48 H14         4.4374    1.6297   -0.5458 H         1 <0>         0.0772
     49 H15         3.5151    3.1519   -0.5292 H         1 <0>         0.0791
     50 H16         3.5697    2.1158    2.0975 H         1 <0>         0.3967
     51 H17         5.1018    3.0277    3.6043 H         1 <0>         0.3965
     52 H18         7.7108    3.5780    2.6733 H         1 <0>         0.0718
     53 H19         6.7885    5.1003    2.6898 H         1 <0>         0.0732
     54 H20         6.2435    4.7440    5.0825 H         1 <0>         0.0931
     55 H21         7.1659    3.2218    5.0659 H         1 <0>         0.0856
     56 H22         7.6856    6.9921    5.0130 H         1 <0>         0.1336
     57 H23         9.9656    7.8646    5.4404 H         1 <0>         0.1357
     58 H24        11.8840    6.1343    5.5397 H         1 <0>         0.1872
     59 H25        -2.9523   -7.1818    6.1327 H         1 <0>         0.4521
@<TRIPOS>BOND
     1    1    6 ar
     2    1    2 ar
     3    1   36 1
     4    2    3 ar
     5    2   37 1
     6    3    4 ar
     7    3   24 1
     8    4    5 ar
     9    4   38 1
    10    5    6 ar
    11    5    7 1
    12    6   39 1
    13    7   12 ar
    14    7    8 ar
    15    8    9 ar
    16    8   40 1
    17    9   10 ar
    18    9   41 1
    19   10   11 ar
    20   10   42 1
    21   11   12 ar
    22   11   14 1
    23   12   13 1
    24   13   43 1
    25   14   23 1
    26   14   15 2
    27   15   16 1
    28   15   44 1
    29   16   17 ar
    30   16   22 ar
    31   17   18 ar
    32   17   45 1
    33   18   20 ar
    34   18   59 1
    35   19   23 1
    36   20   21 ar
    37   20   46 1
    38   21   22 ar
    39   21   47 1
    40   22   23 1
    41   24   25 1
    42   24   48 1
    43   24   49 1
    44   25   26 am
    45   25   50 1
    46   26   27 2
    47   26   28 am
    48   28   29 1
    49   28   51 1
    50   29   30 1
    51   29   52 1
    52   29   53 1
    53   30   31 1
    54   30   54 1
    55   30   55 1
    56   31   35 1
    57   31   32 2
    58   32   33 1
    59   32   56 1
    60   33   34 2
    61   33   57 1
    62   34   35 1
    63   34   58 1
@<TRIPOS>MOLECULE
CHEMBL195314
   61    65     0     0     0
SMALL
USER_CHARGES

@<TRIPOS>ATOM
      1 C1          0.8583   -0.1984   -3.0971 C.ar      1 <0>        -0.1062
      2 C2          2.0491    0.5233   -3.1378 C.ar      1 <0>        -0.0954
      3 C3          2.9775    0.3990   -2.1483 C.ar      1 <0>        -0.1154
      4 C4          2.7341   -0.4659   -1.0728 C.ar      1 <0>        -0.0178
      5 C5          1.5241   -1.2001   -1.0292 C.ar      1 <0>        -0.0568
      6 C6          0.5890   -1.0475   -2.0677 C.ar      1 <0>        -0.1037
      7 C7          1.2785   -2.0675    0.0492 C.ar      1 <0>        -0.0713
      8 C8          2.2000   -2.1992    1.0447 C.ar      1 <0>        -0.1349
      9 C9          3.3923   -1.4871    1.0197 C.ar      1 <0>        -0.0847
     10 C10         3.6765   -0.6203   -0.0253 C.ar      1 <0>        -0.1246
     11 C11         4.9446    0.1320   -0.0463 C.2       1 <0>         0.5683
     12 O1          4.9309    1.3441   -0.1428 O.2       1 <0>        -0.4997
     13 N1          6.1188   -0.5238    0.0415 N.am      1 <0>        -0.6083
     14 C12         6.1419   -1.9886    0.0346 C.3       1 <0>         0.1013
     15 C13         6.3863   -2.4881   -1.3908 C.3       1 <0>        -0.0875
     16 C14         6.4101   -3.9949   -1.3979 C.2       1 <0>         0.0368
     17 C15         7.4762   -4.7708   -1.1243 C.2       1 <0>         0.0328
     18 N2          7.0618   -6.0699   -1.2439 N.pl3     1 <0>        -0.5094
     19 H1          7.6047   -6.8621   -1.1079 H         1 <0>         0.4689
     20 C16         5.7559   -6.0426   -1.5867 C.cat     1 <0>         0.3137
     21 N3          5.3717   -4.7983   -1.6721 N.pl3     1 <0>        -0.4743
     22 C17         7.3719    0.2281    0.1437 C.3       1 <0>         0.1455
     23 C18         7.6910    0.4775    1.5953 C.ar      1 <0>        -0.0882
     24 C19         7.2106    1.6292    2.2160 C.ar      1 <0>        -0.0663
     25 C20         7.4805    1.8846    3.5256 C.ar      1 <0>        -0.1072
     26 C21         8.2544    0.9763    4.2672 C.ar      1 <0>        -0.0103
     27 C22         8.5499    1.2122    5.6224 C.ar      1 <0>        -0.0761
     28 C23         9.2996    0.3204    6.3189 C.ar      1 <0>        -0.0945
     29 C24         9.7898   -0.8452    5.7041 C.ar      1 <0>        -0.1521
     30 C25         9.5160   -1.1060    4.3726 C.ar      1 <0>        -0.0218
     31 C26         8.7430   -0.1956    3.6361 C.ar      1 <0>        -0.0661
     32 C27         8.4395   -0.4278    2.2825 C.ar      1 <0>        -0.0874
     33 C28        10.6048   -1.8000    6.4862 C.cat     1 <0>         0.6009
     34 N4         11.3638   -1.3622    7.4892 N.pl3     1 <0>        -0.7537
     35 N5         10.5798   -3.0976    6.1875 N.pl3     1 <0>        -0.7636
     36 H2          0.1364   -0.0793   -3.8916 H         1 <0>         0.1327
     37 H3          2.2392    1.1905   -3.9655 H         1 <0>         0.1313
     38 H4          3.8968    0.9640   -2.1928 H         1 <0>         0.1317
     39 H5         -0.3384   -1.6006   -2.0487 H         1 <0>         0.1353
     40 H6          0.3577   -2.6304    0.0892 H         1 <0>         0.1362
     41 H7          1.9994   -2.8690    1.8679 H         1 <0>         0.1315
     42 H8          4.1053   -1.6098    1.8215 H         1 <0>         0.1259
     43 H9          6.9413   -2.3424    0.6856 H         1 <0>         0.0880
     44 H10         5.1856   -2.3688    0.3939 H         1 <0>         0.0990
     45 H11         5.5869   -2.1343   -2.0418 H         1 <0>         0.1028
     46 H12         7.3426   -2.1079   -1.7501 H         1 <0>         0.1178
     47 H13         8.4678   -4.4330   -0.8613 H         1 <0>         0.2256
     48 H14         5.1318   -6.9072   -1.7578 H         1 <0>         0.2683
     49 H15         8.1784   -0.3462   -0.3121 H         1 <0>         0.0964
     50 H16         7.2669    1.1814   -0.3742 H         1 <0>         0.1085
     51 H17         6.6153    2.3298    1.6492 H         1 <0>         0.1429
     52 H18         7.1017    2.7818    3.9924 H         1 <0>         0.1442
     53 H19         8.1804    2.1030    6.1085 H         1 <0>         0.1510
     54 H20         9.5228    0.5088    7.3587 H         1 <0>         0.1394
     55 H21         9.8948   -2.0024    3.9043 H         1 <0>         0.1411
     56 H22         8.8015   -1.3182    1.7900 H         1 <0>         0.1337
     57 H23        11.3821   -0.4171    7.7068 H         1 <0>         0.4484
     58 H24        10.0270   -3.4166    5.4570 H         1 <0>         0.4425
     59 H25        11.1143   -3.7238    6.7004 H         1 <0>         0.4341
     60 H26        11.8983   -1.9883    8.0021 H         1 <0>         0.4347
     61 H27         4.4767   -4.5014   -1.8998 H         1 <0>         0.4664
@<TRIPOS>BOND
     1    1    6 ar
     2    1    2 ar
     3    1   36 1
     4    2    3 ar
     5    2   37 1
     6    3    4 ar
     7    3   38 1
     8    4   10 ar
     9    4    5 ar
    10    5    6 ar
    11    5    7 ar
    12    6   39 1
    13    7    8 ar
    14    7   40 1
    15    8    9 ar
    16    8   41 1
    17    9   10 ar
    18    9   42 1
    19   10   11 1
    20   11   12 2
    21   11   13 am
    22   13   14 1
    23   13   22 1
    24   14   15 1
    25   14   43 1
    26   14   44 1
    27   15   16 1
    28   15   45 1
    29   15   46 1
    30   16   21 1
    31   16   17 2
    32   17   18 1
    33   17   47 1
    34   18   19 1
    35   18   20 1
    36   20   21 2
    37   20   48 1
    38   21   61 1
    39   22   23 1
    40   22   49 1
    41   22   50 1
    42   23   32 ar
    43   23   24 ar
    44   24   25 ar
    45   24   51 1
    46   25   26 ar
    47   25   52 1
    48   26   31 ar
    49   26   27 ar
    50   27   28 ar
    51   27   53 1
    52   28   29 ar
    53   28   54 1
    54   29   30 ar
    55   29   33 1
    56   30   31 ar
    57   30   55 1
    58   31   32 ar
    59   32   56 1
    60   33   34 2
    61   33   35 1
    62   34   57 1
    63   34   60 1
    64   35   58 1
    65   35   59 1
@<TRIPOS>MOLECULE
CHEMBL195314__1
   60    64     0     0     0
SMALL
USER_CHARGES

@<TRIPOS>ATOM
      1 C1          0.8583   -0.1984   -3.0971 C.ar      1 <0>        -0.1114
      2 C2          2.0491    0.5233   -3.1378 C.ar      1 <0>        -0.1021
      3 C3          2.9775    0.3990   -2.1483 C.ar      1 <0>        -0.1108
      4 C4          2.7341   -0.4659   -1.0728 C.ar      1 <0>        -0.0140
      5 C5          1.5241   -1.2001   -1.0292 C.ar      1 <0>        -0.0544
      6 C6          0.5890   -1.0475   -2.0677 C.ar      1 <0>        -0.1020
      7 C7          1.2785   -2.0675    0.0492 C.ar      1 <0>        -0.0724
      8 C8          2.2000   -2.1992    1.0447 C.ar      1 <0>        -0.1276
      9 C9          3.3923   -1.4871    1.0197 C.ar      1 <0>        -0.0776
     10 C10         3.6765   -0.6203   -0.0253 C.ar      1 <0>        -0.1224
     11 C11         4.9446    0.1320   -0.0463 C.2       1 <0>         0.5718
     12 O1          4.9309    1.3441   -0.1428 O.2       1 <0>        -0.5167
     13 N1          6.1188   -0.5238    0.0415 N.am      1 <0>        -0.6064
     14 C12         6.1419   -1.9886    0.0346 C.3       1 <0>         0.1042
     15 C13         6.3863   -2.4881   -1.3908 C.3       1 <0>        -0.0594
     16 C14         6.4101   -3.9949   -1.3979 C.2       1 <0>        -0.0300
     17 C15         5.3449   -4.8142   -1.4857 C.2       1 <0>        -0.0095
     18 N2          5.7909   -6.0789   -1.4592 N.2       1 <0>        -0.4894
     19 H1          8.4395   -4.4958   -1.2529 H         1 <0>         0.4171
     20 C16         7.0919   -6.0744   -1.3584 C.2       1 <0>         0.1888
     21 N3          7.5190   -4.7938   -1.3222 N.pl3     1 <0>        -0.5692
     22 C17         7.3719    0.2281    0.1437 C.3       1 <0>         0.1453
     23 C18         7.6910    0.4775    1.5953 C.ar      1 <0>        -0.0840
     24 C19         7.2106    1.6292    2.2160 C.ar      1 <0>        -0.0608
     25 C20         7.4805    1.8846    3.5256 C.ar      1 <0>        -0.1133
     26 C21         8.2544    0.9763    4.2672 C.ar      1 <0>        -0.0107
     27 C22         8.5499    1.2122    5.6224 C.ar      1 <0>        -0.0779
     28 C23         9.2996    0.3204    6.3189 C.ar      1 <0>        -0.0964
     29 C24         9.7898   -0.8452    5.7041 C.ar      1 <0>        -0.1580
     30 C25         9.5160   -1.1060    4.3726 C.ar      1 <0>        -0.0164
     31 C26         8.7430   -0.1956    3.6361 C.ar      1 <0>        -0.0659
     32 C27         8.4395   -0.4278    2.2825 C.ar      1 <0>        -0.0852
     33 C28        10.6048   -1.8000    6.4862 C.cat     1 <0>         0.6021
     34 N4         11.3638   -1.3622    7.4892 N.pl3     1 <0>        -0.7578
     35 N5         10.5798   -3.0976    6.1875 N.pl3     1 <0>        -0.7621
     36 H2          0.1364   -0.0793   -3.8916 H         1 <0>         0.1285
     37 H3          2.2392    1.1905   -3.9655 H         1 <0>         0.1272
     38 H4          3.8968    0.9640   -2.1928 H         1 <0>         0.1298
     39 H5         -0.3384   -1.6006   -2.0487 H         1 <0>         0.1327
     40 H6          0.3577   -2.6304    0.0892 H         1 <0>         0.1344
     41 H7          1.9994   -2.8690    1.8679 H         1 <0>         0.1309
     42 H8          4.1053   -1.6098    1.8215 H         1 <0>         0.1246
     43 H9          6.9413   -2.3424    0.6856 H         1 <0>         0.0752
     44 H10         5.1856   -2.3688    0.3939 H         1 <0>         0.1012
     45 H11         5.5869   -2.1343   -2.0418 H         1 <0>         0.0931
     46 H12         7.3426   -2.1079   -1.7501 H         1 <0>         0.0746
     47 H13         4.3125   -4.5068   -1.5637 H         1 <0>         0.1683
     48 H14         7.7229   -6.9499   -1.3145 H         1 <0>         0.2090
     49 H15         8.1784   -0.3462   -0.3121 H         1 <0>         0.0933
     50 H16         7.2669    1.1814   -0.3742 H         1 <0>         0.1053
     51 H17         6.6153    2.3298    1.6492 H         1 <0>         0.1434
     52 H18         7.1017    2.7818    3.9924 H         1 <0>         0.1426
     53 H19         8.1804    2.1030    6.1085 H         1 <0>         0.1489
     54 H20         9.5228    0.5088    7.3587 H         1 <0>         0.1371
     55 H21         9.8948   -2.0024    3.9043 H         1 <0>         0.1417
     56 H22         8.8015   -1.3182    1.7900 H         1 <0>         0.1351
     57 H23        11.3821   -0.4171    7.7068 H         1 <0>         0.4470
     58 H24        10.0270   -3.4166    5.4570 H         1 <0>         0.4447
     59 H25        11.1143   -3.7238    6.7004 H         1 <0>         0.4331
     60 H26        11.8983   -1.9883    8.0021 H         1 <0>         0.4328
@<TRIPOS>BOND
     1    1    6 ar
     2    1    2 ar
     3    1   36 1
     4    2    3 ar
     5    2   37 1
     6    3    4 ar
     7    3   38 1
     8    4   10 ar
     9    4    5 ar
    10    5    6 ar
    11    5    7 ar
    12    6   39 1
    13    7    8 ar
    14    7   40 1
    15    8    9 ar
    16    8   41 1
    17    9   10 ar
    18    9   42 1
    19   10   11 1
    20   11   12 2
    21   11   13 am
    22   13   14 1
    23   13   22 1
    24   14   15 1
    25   14   43 1
    26   14   44 1
    27   15   45 1
    28   15   46 1
    29   15   16 1
    30   16   17 2
    31   16   21 1
    32   17   18 1
    33   17   47 1
    34   18   20 2
    35   19   21 1
    36   20   48 1
    37   20   21 1
    38   22   23 1
    39   22   49 1
    40   22   50 1
    41   23   32 ar
    42   23   24 ar
    43   24   25 ar
    44   24   51 1
    45   25   26 ar
    46   25   52 1
    47   26   31 ar
    48   26   27 ar
    49   27   28 ar
    50   27   53 1
    51   28   29 ar
    52   28   54 1
    53   29   30 ar
    54   29   33 1
    55   30   31 ar
    56   30   55 1
    57   31   32 ar
    58   32   56 1
    59   33   34 2
    60   33   35 1
    61   34   57 1
    62   34   60 1
    63   35   58 1
    64   35   59 1
@<TRIPOS>MOLECULE
CHEMBL195314__2
   60    64     0     0     0
SMALL
USER_CHARGES

@<TRIPOS>ATOM
      1 C1          0.8583   -0.1984   -3.0971 C.ar      1 <0>        -0.1114
      2 C2          2.0491    0.5233   -3.1378 C.ar      1 <0>        -0.1043
      3 C3          2.9775    0.3990   -2.1483 C.ar      1 <0>        -0.1079
      4 C4          2.7341   -0.4659   -1.0728 C.ar      1 <0>        -0.0147
      5 C5          1.5241   -1.2001   -1.0292 C.ar      1 <0>        -0.0547
      6 C6          0.5890   -1.0475   -2.0677 C.ar      1 <0>        -0.1044
      7 C7          1.2785   -2.0675    0.0492 C.ar      1 <0>        -0.0769
      8 C8          2.2000   -2.1992    1.0447 C.ar      1 <0>        -0.1270
      9 C9          3.3923   -1.4871    1.0197 C.ar      1 <0>        -0.0779
     10 C10         3.6765   -0.6203   -0.0253 C.ar      1 <0>        -0.1174
     11 C11         4.9446    0.1320   -0.0463 C.2       1 <0>         0.5696
     12 O1          4.9309    1.3441   -0.1428 O.2       1 <0>        -0.5206
     13 N1          6.1188   -0.5238    0.0415 N.am      1 <0>        -0.6046
     14 C12         6.1419   -1.9886    0.0346 C.3       1 <0>         0.1078
     15 C13         6.3863   -2.4881   -1.3908 C.3       1 <0>        -0.0481
     16 C14         6.4101   -3.9949   -1.3979 C.2       1 <0>        -0.0004
     17 C15         5.6484   -4.7948   -2.1683 C.2       1 <0>        -0.0424
     18 N2          5.9888   -6.0840   -1.8586 N.pl3     1 <0>        -0.5676
     19 H1          5.6119   -6.8883   -2.2484 H         1 <0>         0.4238
     20 C16         6.9473   -6.0269   -0.9091 C.2       1 <0>         0.1871
     21 N3          7.1978   -4.7743   -0.6421 N.2       1 <0>        -0.4933
     22 C17         7.3719    0.2281    0.1437 C.3       1 <0>         0.1452
     23 C18         7.6910    0.4775    1.5953 C.ar      1 <0>        -0.0851
     24 C19         7.2106    1.6292    2.2160 C.ar      1 <0>        -0.0595
     25 C20         7.4805    1.8846    3.5256 C.ar      1 <0>        -0.1168
     26 C21         8.2544    0.9763    4.2672 C.ar      1 <0>        -0.0107
     27 C22         8.5499    1.2122    5.6224 C.ar      1 <0>        -0.0796
     28 C23         9.2996    0.3204    6.3189 C.ar      1 <0>        -0.0968
     29 C24         9.7898   -0.8452    5.7041 C.ar      1 <0>        -0.1610
     30 C25         9.5160   -1.1060    4.3726 C.ar      1 <0>        -0.0129
     31 C26         8.7430   -0.1956    3.6361 C.ar      1 <0>        -0.0666
     32 C27         8.4395   -0.4278    2.2825 C.ar      1 <0>        -0.0812
     33 C28        10.6048   -1.8000    6.4862 C.cat     1 <0>         0.6026
     34 N4         11.3638   -1.3622    7.4892 N.pl3     1 <0>        -0.7592
     35 N5         10.5798   -3.0976    6.1875 N.pl3     1 <0>        -0.7619
     36 H2          0.1364   -0.0793   -3.8916 H         1 <0>         0.1278
     37 H3          2.2392    1.1905   -3.9655 H         1 <0>         0.1273
     38 H4          3.8968    0.9640   -2.1928 H         1 <0>         0.1311
     39 H5         -0.3384   -1.6006   -2.0487 H         1 <0>         0.1314
     40 H6          0.3577   -2.6304    0.0892 H         1 <0>         0.1326
     41 H7          1.9994   -2.8690    1.8679 H         1 <0>         0.1294
     42 H8          4.1053   -1.6098    1.8215 H         1 <0>         0.1255
     43 H9          6.9413   -2.3424    0.6856 H         1 <0>         0.0850
     44 H10         5.1856   -2.3688    0.3939 H         1 <0>         0.0925
     45 H11         5.5869   -2.1343   -2.0418 H         1 <0>         0.0777
     46 H12         7.3426   -2.1079   -1.7501 H         1 <0>         0.0778
     47 H13         4.9105   -4.4797   -2.8912 H         1 <0>         0.1755
     48 H14         7.4297   -6.8771   -0.4498 H         1 <0>         0.2074
     49 H15         8.1784   -0.3462   -0.3121 H         1 <0>         0.0965
     50 H16         7.2669    1.1814   -0.3742 H         1 <0>         0.1034
     51 H17         6.6153    2.3298    1.6492 H         1 <0>         0.1425
     52 H18         7.1017    2.7818    3.9924 H         1 <0>         0.1413
     53 H19         8.1804    2.1030    6.1085 H         1 <0>         0.1476
     54 H20         9.5228    0.5088    7.3587 H         1 <0>         0.1359
     55 H21         9.8948   -2.0024    3.9043 H         1 <0>         0.1435
     56 H22         8.8015   -1.3182    1.7900 H         1 <0>         0.1400
     57 H23        11.3821   -0.4171    7.7068 H         1 <0>         0.4466
     58 H24        10.0270   -3.4166    5.4570 H         1 <0>         0.4455
     59 H25        11.1143   -3.7238    6.7004 H         1 <0>         0.4325
     60 H26        11.8983   -1.9883    8.0021 H         1 <0>         0.4322
@<TRIPOS>BOND
     1    1    6 ar
     2    1    2 ar
     3    1   36 1
     4    2    3 ar
     5    2   37 1
     6    3    4 ar
     7    3   38 1
     8    4   10 ar
     9    4    5 ar
    10    5    6 ar
    11    5    7 ar
    12    6   39 1
    13    7    8 ar
    14    7   40 1
    15    8    9 ar
    16    8   41 1
    17    9   10 ar
    18    9   42 1
    19   10   11 1
    20   11   12 2
    21   11   13 am
    22   13   14 1
    23   13   22 1
    24   14   15 1
    25   14   43 1
    26   14   44 1
    27   15   16 1
    28   15   45 1
    29   15   46 1
    30   16   21 1
    31   16   17 2
    32   17   18 1
    33   17   47 1
    34   18   19 1
    35   18   20 1
    36   20   21 2
    37   20   48 1
    38   22   23 1
    39   22   49 1
    40   22   50 1
    41   23   32 ar
    42   23   24 ar
    43   24   25 ar
    44   24   51 1
    45   25   26 ar
    46   25   52 1
    47   26   31 ar
    48   26   27 ar
    49   27   28 ar
    50   27   53 1
    51   28   29 ar
    52   28   54 1
    53   29   30 ar
    54   29   33 1
    55   30   31 ar
    56   30   55 1
    57   31   32 ar
    58   32   56 1
    59   33   34 2
    60   33   35 1
    61   34   57 1
    62   34   60 1
    63   35   58 1
    64   35   59 1
@<TRIPOS>MOLECULE
CHEMBL265315
   61    62     0     0     0
SMALL
USER_CHARGES

@<TRIPOS>ATOM
      1 C1         -0.0167    1.3781    0.0096 C.ar      1 <0>        -0.1205
      2 C2          1.1709    2.0855    0.0021 C.ar      1 <0>        -0.1206
      3 C3          2.3773    1.4107   -0.0130 C.ar      1 <0>        -0.1198
      4 C4          2.3960    0.0285   -0.0201 C.ar      1 <0>        -0.0742
      5 C5          1.2084   -0.6789   -0.0117 C.ar      1 <0>        -0.0905
      6 C6          0.0021   -0.0041    0.0020 C.ar      1 <0>        -0.1202
      7 C7          3.7112   -0.7071   -0.0376 C.3       1 <0>        -0.0650
      8 C8          4.1714   -0.9633    1.3989 C.3       1 <0>         0.0891
      9 H1          4.2087   -0.0191    1.9423 H         1 <0>         0.1031
     10 C9          5.5425   -1.5884    1.3832 C.2       1 <0>         0.5100
     11 O1          5.6646   -2.7862    1.5290 O.2       1 <0>        -0.5338
     12 N1          6.6331   -0.8163    1.2072 N.am      1 <0>        -0.5994
     13 C10         6.6299    0.6467    1.0255 C.3       1 <0>         0.0958
     14 C11         8.0362    1.1064    1.4846 C.3       1 <0>        -0.1337
     15 C12         8.9265   -0.0571    0.9737 C.3       1 <0>        -0.1240
     16 C13         8.0235   -1.2928    1.1711 C.3       1 <0>         0.1194
     17 H2          8.1570   -1.9838    0.3387 H         1 <0>         0.0956
     18 C14         8.3645   -1.9778    2.4694 C.2       1 <0>         0.5085
     19 O2          7.5314   -2.0641    3.3465 O.2       1 <0>        -0.4847
     20 N2          9.5952   -2.4945    2.6557 N.am      1 <0>        -0.7357
     21 C15         9.9267   -3.1605    3.9178 C.3       1 <0>         0.1421
     22 H3          9.0492   -3.6880    4.2917 H         1 <0>         0.1024
     23 C16        11.0616   -4.1597    3.6845 C.3       1 <0>        -0.1244
     24 C17        10.5771   -5.2736    2.7542 C.3       1 <0>        -0.1347
     25 C18        11.7120   -6.2729    2.5209 C.3       1 <0>         0.0833
     26 N3         11.2481   -7.3394    1.6301 N.pl3     1 <0>        -0.6575
     27 C19        12.0562   -8.3053    1.2940 C.cat     1 <0>         0.7385
     28 N4         13.3439   -8.3232    1.7753 N.pl3     1 <0>        -0.8121
     29 N5         11.6209   -9.3062    0.4580 N.pl3     1 <0>        -0.8140
     30 C20        10.3697   -2.1161    4.9445 C.3       1 <0>        -0.0611
     31 Cl1         9.0323   -0.9386    5.2194 Cl        1 <0>        -0.1479
     32 N6          3.2263   -1.8723    2.0611 N.3       1 <0>        -0.8109
     33 H4         -0.9591    1.9053    0.0259 H         1 <0>         0.1204
     34 H5          1.1563    3.1654    0.0076 H         1 <0>         0.1207
     35 H6          3.3051    1.9634   -0.0196 H         1 <0>         0.1171
     36 H7          1.2231   -1.7588   -0.0176 H         1 <0>         0.1195
     37 H8         -0.9258   -0.5567    0.0082 H         1 <0>         0.1207
     38 H9          3.5884   -1.6586   -0.5549 H         1 <0>         0.0768
     39 H10         4.4573   -0.1052   -0.5563 H         1 <0>         0.0785
     40 H11         6.4721    0.8983   -0.0232 H         1 <0>         0.0785
     41 H12         5.8597    1.1044    1.6464 H         1 <0>         0.0830
     42 H13         8.3136    2.0479    1.0105 H         1 <0>         0.0935
     43 H14         8.0853    1.1882    2.5704 H         1 <0>         0.0802
     44 H15         9.1738    0.0801   -0.0790 H         1 <0>         0.0906
     45 H16         9.8312   -0.1434    1.5755 H         1 <0>         0.0855
     46 H17        10.2615   -2.4255    1.9542 H         1 <0>         0.3971
     47 H18        11.9085   -3.6476    3.2278 H         1 <0>         0.0826
     48 H19        11.3683   -4.5902    4.6378 H         1 <0>         0.0923
     49 H20         9.7302   -5.7858    3.2109 H         1 <0>         0.0874
     50 H21        10.2704   -4.8431    1.8010 H         1 <0>         0.0859
     51 H22        12.5589   -5.7607    2.0642 H         1 <0>         0.1012
     52 H23        12.0187   -6.7034    3.4742 H         1 <0>         0.1017
     53 H24        13.6510   -7.6170    2.3651 H         1 <0>         0.4371
     54 H25        13.9453   -9.0420    1.5252 H         1 <0>         0.4388
     55 H26        10.7124   -9.2936    0.1184 H         1 <0>         0.4389
     56 H27        12.2223  -10.0250    0.2078 H         1 <0>         0.4393
     57 H28        10.6163   -2.6116    5.8835 H         1 <0>         0.0999
     58 H29        11.2472   -1.5886    4.5706 H         1 <0>         0.0930
     59 H30         3.1738   -2.7554    1.5759 H         1 <0>         0.3481
     60 H31         3.4724   -2.0064    3.0304 H         1 <0>         0.3483
     61 H32        10.3396   -7.3268    1.2905 H         1 <0>         0.4401
@<TRIPOS>BOND
     1    1    6 ar
     2    1    2 ar
     3    1   33 1
     4    2    3 ar
     5    2   34 1
     6    3    4 ar
     7    3   35 1
     8    4    5 ar
     9    4    7 1
    10    5    6 ar
    11    5   36 1
    12    6   37 1
    13    7    8 1
    14    7   38 1
    15    7   39 1
    16    8    9 1
    17    8   10 1
    18    8   32 1
    19   10   11 2
    20   10   12 am
    21   12   16 1
    22   12   13 1
    23   13   14 1
    24   13   40 1
    25   13   41 1
    26   14   15 1
    27   14   42 1
    28   14   43 1
    29   15   16 1
    30   15   44 1
    31   15   45 1
    32   16   17 1
    33   16   18 1
    34   18   19 2
    35   18   20 am
    36   20   21 1
    37   20   46 1
    38   21   22 1
    39   21   23 1
    40   21   30 1
    41   23   24 1
    42   23   47 1
    43   23   48 1
    44   24   25 1
    45   24   49 1
    46   24   50 1
    47   25   26 1
    48   25   51 1
    49   25   52 1
    50   26   27 2
    51   26   61 1
    52   27   28 1
    53   27   29 1
    54   28   53 1
    55   28   54 1
    56   29   55 1
    57   29   56 1
    58   30   31 1
    59   30   57 1
    60   30   58 1
    61   32   59 1
    62   32   60 1
@<TRIPOS>MOLECULE
CHEMBL265315__1
   62    63     0     0     0
SMALL
USER_CHARGES

@<TRIPOS>ATOM
      1 C1         -0.0167    1.3781    0.0096 C.ar      1 <0>        -0.0980
      2 C2          1.1709    2.0855    0.0021 C.ar      1 <0>        -0.1039
      3 C3          2.3773    1.4107   -0.0130 C.ar      1 <0>        -0.1028
      4 C4          2.3960    0.0285   -0.0201 C.ar      1 <0>        -0.1341
      5 C5          1.2084   -0.6789   -0.0117 C.ar      1 <0>        -0.1387
      6 C6          0.0021   -0.0041    0.0020 C.ar      1 <0>        -0.1053
      7 C7          3.7112   -0.7071   -0.0376 C.3       1 <0>        -0.0896
      8 C8          4.1714   -0.9633    1.3989 C.3       1 <0>         0.0176
      9 H1          4.2087   -0.0191    1.9423 H         1 <0>         0.1636
     10 C9          5.5425   -1.5884    1.3832 C.2       1 <0>         0.5315
     11 O1          5.6646   -2.7862    1.5290 O.2       1 <0>        -0.5144
     12 N1          6.6331   -0.8163    1.2072 N.am      1 <0>        -0.5794
     13 C10         6.6299    0.6467    1.0255 C.3       1 <0>         0.0845
     14 C11         8.0362    1.1064    1.4846 C.3       1 <0>        -0.1339
     15 C12         8.9265   -0.0571    0.9737 C.3       1 <0>        -0.1269
     16 C13         8.0235   -1.2928    1.1711 C.3       1 <0>         0.1203
     17 H2          8.1570   -1.9838    0.3387 H         1 <0>         0.1093
     18 C14         8.3645   -1.9778    2.4694 C.2       1 <0>         0.5129
     19 O2          7.5314   -2.0641    3.3465 O.2       1 <0>        -0.4981
     20 N2          9.5952   -2.4945    2.6557 N.am      1 <0>        -0.7288
     21 C15         9.9267   -3.1605    3.9178 C.3       1 <0>         0.1437
     22 H3          9.0492   -3.6880    4.2917 H         1 <0>         0.1040
     23 C16        11.0616   -4.1597    3.6845 C.3       1 <0>        -0.1283
     24 C17        10.5771   -5.2736    2.7542 C.3       1 <0>        -0.1322
     25 C18        11.7120   -6.2729    2.5209 C.3       1 <0>         0.0823
     26 N3         11.2481   -7.3394    1.6301 N.pl3     1 <0>        -0.6607
     27 C19        12.0562   -8.3053    1.2940 C.cat     1 <0>         0.7395
     28 N4         13.3439   -8.3232    1.7753 N.pl3     1 <0>        -0.8100
     29 N5         11.6209   -9.3062    0.4580 N.pl3     1 <0>        -0.8126
     30 C20        10.3697   -2.1161    4.9445 C.3       1 <0>        -0.0603
     31 Cl1         9.0323   -0.9386    5.2194 Cl        1 <0>        -0.1539
     32 N6          3.2263   -1.8723    2.0611 N.4       1 <0>        -0.6207
     33 H4         -0.9591    1.9053    0.0259 H         1 <0>         0.1349
     34 H5          1.1563    3.1654    0.0076 H         1 <0>         0.1350
     35 H6          3.3051    1.9634   -0.0196 H         1 <0>         0.1297
     36 H7          1.2231   -1.7588   -0.0176 H         1 <0>         0.1231
     37 H8         -0.9258   -0.5567    0.0082 H         1 <0>         0.1342
     38 H9          3.5884   -1.6586   -0.5549 H         1 <0>         0.1062
     39 H10         4.4573   -0.1052   -0.5563 H         1 <0>         0.1228
     40 H11         6.4721    0.8983   -0.0232 H         1 <0>         0.0914
     41 H12         5.8597    1.1044    1.6464 H         1 <0>         0.0865
     42 H13         8.3136    2.0479    1.0105 H         1 <0>         0.1030
     43 H14         8.0853    1.1882    2.5704 H         1 <0>         0.0859
     44 H15         9.1738    0.0801   -0.0790 H         1 <0>         0.0985
     45 H16         9.8312   -0.1434    1.5755 H         1 <0>         0.0947
     46 H17        10.2615   -2.4255    1.9542 H         1 <0>         0.4015
     47 H18        11.9085   -3.6476    3.2278 H         1 <0>         0.0854
     48 H19        11.3683   -4.5902    4.6378 H         1 <0>         0.0963
     49 H20         9.7302   -5.7858    3.2109 H         1 <0>         0.0864
     50 H21        10.2704   -4.8431    1.8010 H         1 <0>         0.0836
     51 H22        12.5589   -5.7607    2.0642 H         1 <0>         0.1020
     52 H23        12.0187   -6.7034    3.4742 H         1 <0>         0.1027
     53 H24        13.6510   -7.6170    2.3651 H         1 <0>         0.4373
     54 H25        13.9453   -9.0420    1.5252 H         1 <0>         0.4405
     55 H26        10.7124   -9.2936    0.1184 H         1 <0>         0.4383
     56 H27        12.2223  -10.0250    0.2078 H         1 <0>         0.4410
     57 H28        10.6163   -2.6116    5.8835 H         1 <0>         0.1045
     58 H29        11.2472   -1.5886    4.5706 H         1 <0>         0.0966
     59 H30         3.1918   -2.7463    1.5581 H         1 <0>         0.4395
     60 H31         3.5298   -2.0413    3.0084 H         1 <0>         0.4423
     61 H32        10.3396   -7.3268    1.2905 H         1 <0>         0.4383
     62 H33         2.3083   -1.4538    2.0716 H         1 <0>         0.4414
@<TRIPOS>BOND
     1    1    6 ar
     2    1    2 ar
     3    1   33 1
     4    2    3 ar
     5    2   34 1
     6    3    4 ar
     7    3   35 1
     8    4    5 ar
     9    4    7 1
    10    5    6 ar
    11    5   36 1
    12    6   37 1
    13    7    8 1
    14    7   38 1
    15    7   39 1
    16    8    9 1
    17    8   10 1
    18    8   32 1
    19   10   11 2
    20   10   12 am
    21   12   16 1
    22   12   13 1
    23   13   14 1
    24   13   40 1
    25   13   41 1
    26   14   15 1
    27   14   42 1
    28   14   43 1
    29   15   16 1
    30   15   44 1
    31   15   45 1
    32   16   17 1
    33   16   18 1
    34   18   19 2
    35   18   20 am
    36   20   21 1
    37   20   46 1
    38   21   22 1
    39   21   23 1
    40   21   30 1
    41   23   24 1
    42   23   47 1
    43   23   48 1
    44   24   25 1
    45   24   49 1
    46   24   50 1
    47   25   26 1
    48   25   51 1
    49   25   52 1
    50   26   27 2
    51   26   61 1
    52   27   28 1
    53   27   29 1
    54   28   53 1
    55   28   54 1
    56   29   55 1
    57   29   56 1
    58   30   31 1
    59   30   57 1
    60   30   58 1
    61   32   59 1
    62   32   60 1
    63   32   62 1
@<TRIPOS>MOLECULE
CHEMBL282830
   77    81     0     0     0
SMALL
USER_CHARGES

@<TRIPOS>ATOM
      1 C1         -0.0167    1.3781    0.0096 C.ar      1 <0>        -0.0998
      2 C2          1.1709    2.0855    0.0021 C.ar      1 <0>        -0.1046
      3 C3          2.3773    1.4107   -0.0130 C.ar      1 <0>        -0.1044
      4 C4          2.3960    0.0285   -0.0201 C.ar      1 <0>        -0.1303
      5 C5          1.2084   -0.6789   -0.0117 C.ar      1 <0>        -0.1410
      6 C6          0.0021   -0.0041    0.0020 C.ar      1 <0>        -0.1056
      7 C7          3.7112   -0.7071   -0.0376 C.3       1 <0>        -0.0868
      8 C8          4.1714   -0.9633    1.3989 C.3       1 <0>         0.0781
      9 C9          4.3708    0.3738    2.1235 C.3       1 <0>        -0.1798
     10 C10         4.8462    0.0771    3.5472 C.3       1 <0>         0.0358
     11 N1          6.0526   -0.7268    3.5394 N.3       1 <0>        -0.3530
     12 C11         7.2394   -0.0198    3.0126 C.3       1 <0>         0.0028
     13 C12         8.2535   -1.1710    2.7987 C.3       1 <0>        -0.1426
     14 C13         7.3799   -2.4381    2.6816 C.3       1 <0>         0.0467
     15 H1          7.5580   -2.9323    1.7265 H         1 <0>         0.1168
     16 N2          5.9710   -1.9575    2.7589 N.3       1 <0>        -0.3100
     17 C14         5.5047   -1.7091    1.3867 C.3       1 <0>        -0.0316
     18 C15         7.6743   -3.3817    3.8191 C.2       1 <0>         0.5329
     19 O1          6.7977   -3.6790    4.6027 O.2       1 <0>        -0.4943
     20 N3          8.9118   -3.8952    3.9657 N.am      1 <0>        -0.7209
     21 C16         9.1980   -4.8124    5.0716 C.3       1 <0>         0.1331
     22 H2          8.3220   -5.4312    5.2664 H         1 <0>         0.1335
     23 C17        10.3817   -5.7072    4.6987 C.3       1 <0>        -0.1215
     24 C18         9.9930   -6.6025    3.5204 C.3       1 <0>        -0.1278
     25 C19        11.1767   -7.4973    3.1475 C.3       1 <0>         0.0913
     26 N4         10.8045   -8.3545    2.0194 N.pl3     1 <0>        -0.6964
     27 C20        11.7093   -9.2445    1.5090 C.cat     1 <0>         0.7425
     28 N5         11.3708  -10.0239    0.4833 N.pl3     1 <0>        -0.7936
     29 N6         12.9287   -9.3316    2.0377 N.pl3     1 <0>        -0.7915
     30 C21         9.5375   -4.0192    6.3071 C.2       1 <0>         0.4412
     31 O2          9.8072   -2.8405    6.2158 O.2       1 <0>        -0.4067
     32 C22         9.5417   -4.6747    7.6238 C.2       1 <0>         0.0373
     33 N7          9.2848   -5.9309    7.9228 N.2       1 <0>        -0.4389
     34 C23         9.3245   -6.3997    9.1720 C.ar      1 <0>         0.0535
     35 C24         9.0698   -7.7215    9.6218 C.ar      1 <0>        -0.0425
     36 C25         9.1533   -8.0351   10.9396 C.ar      1 <0>        -0.1144
     37 C26         9.4881   -7.0857   11.8987 C.ar      1 <0>        -0.0616
     38 C27         9.7443   -5.7869   11.5070 C.ar      1 <0>        -0.0763
     39 C28         9.6640   -5.4544   10.1750 C.ar      1 <0>        -0.1275
     40 S1          9.9046   -3.9714    9.2270 S.3       1 <0>         0.0806
     41 N8          3.1631   -1.7642    2.1058 N.4       1 <0>        -0.6295
     42 H3         -0.9591    1.9053    0.0259 H         1 <0>         0.1342
     43 H4          1.1563    3.1654    0.0076 H         1 <0>         0.1338
     44 H5          3.3051    1.9634   -0.0196 H         1 <0>         0.1278
     45 H6          1.2231   -1.7588   -0.0176 H         1 <0>         0.1225
     46 H7         -0.9258   -0.5567    0.0082 H         1 <0>         0.1334
     47 H8          3.5884   -1.6586   -0.5549 H         1 <0>         0.1010
     48 H9          4.4573   -0.1052   -0.5563 H         1 <0>         0.1173
     49 H10         5.1211    0.9672    1.6011 H         1 <0>         0.1124
     50 H11         3.4273    0.9188    2.1567 H         1 <0>         0.1107
     51 H12         5.0468    1.0176    4.0603 H         1 <0>         0.1163
     52 H13         4.0623   -0.4601    4.0811 H         1 <0>         0.0874
     53 H14         7.0084    0.4724    2.0679 H         1 <0>         0.0590
     54 H15         7.6170    0.6976    3.7412 H         1 <0>         0.1116
     55 H16         8.8202   -1.0134    1.8810 H         1 <0>         0.0934
     56 H17         8.9256   -1.2498    3.6532 H         1 <0>         0.0999
     57 H18         5.3790   -2.6616    0.8719 H         1 <0>         0.1144
     58 H19         6.2465   -1.1106    0.8578 H         1 <0>         0.0928
     59 H20         9.6129   -3.6574    3.3390 H         1 <0>         0.4056
     60 H21        11.2323   -5.0861    4.4179 H         1 <0>         0.0871
     61 H22        10.6514   -6.3279    5.5531 H         1 <0>         0.1040
     62 H23         9.1424   -7.2236    3.8012 H         1 <0>         0.0901
     63 H24         9.7233   -5.9818    2.6659 H         1 <0>         0.0837
     64 H25        12.0273   -6.8762    2.8668 H         1 <0>         0.0945
     65 H26        11.4464   -8.1179    4.0020 H         1 <0>         0.0963
     66 H27         9.9165   -8.2911    1.6343 H         1 <0>         0.4348
     67 H28        10.4828   -9.9604    0.0982 H         1 <0>         0.4407
     68 H29        13.1751   -8.7640    2.7847 H         1 <0>         0.4401
     69 H30        13.5703   -9.9627    1.6757 H         1 <0>         0.4424
     70 H31         8.8061   -8.4869    8.9069 H         1 <0>         0.1368
     71 H32         8.9539   -9.0496   11.2519 H         1 <0>         0.1423
     72 H33         9.5468   -7.3618   12.9411 H         1 <0>         0.1487
     73 H34        10.0052   -5.0383   12.2404 H         1 <0>         0.1428
     74 H35         3.0409   -2.6462    1.6313 H         1 <0>         0.4327
     75 H36         3.4695   -1.9313    3.0526 H         1 <0>         0.4411
     76 H37        12.0124  -10.6550    0.1213 H         1 <0>         0.4428
     77 H38         2.2862   -1.2653    2.1193 H         1 <0>         0.4325
@<TRIPOS>BOND
     1    1    6 ar
     2    1    2 ar
     3    1   42 1
     4    2    3 ar
     5    2   43 1
     6    3    4 ar
     7    3   44 1
     8    4    5 ar
     9    4    7 1
    10    5    6 ar
    11    5   45 1
    12    6   46 1
    13    7    8 1
    14    7   47 1
    15    7   48 1
    16    8   17 1
    17    8    9 1
    18    8   41 1
    19    9   10 1
    20    9   49 1
    21    9   50 1
    22   10   11 1
    23   10   51 1
    24   10   52 1
    25   11   16 1
    26   11   12 1
    27   12   13 1
    28   12   53 1
    29   12   54 1
    30   13   14 1
    31   13   55 1
    32   13   56 1
    33   14   15 1
    34   14   16 1
    35   14   18 1
    36   16   17 1
    37   17   57 1
    38   17   58 1
    39   18   19 2
    40   18   20 am
    41   20   21 1
    42   20   59 1
    43   21   22 1
    44   21   23 1
    45   21   30 1
    46   23   24 1
    47   23   60 1
    48   23   61 1
    49   24   25 1
    50   24   62 1
    51   24   63 1
    52   25   26 1
    53   25   64 1
    54   25   65 1
    55   26   27 1
    56   26   66 1
    57   27   28 2
    58   27   29 1
    59   28   67 1
    60   28   76 1
    61   29   68 1
    62   29   69 1
    63   30   31 2
    64   30   32 1
    65   32   40 1
    66   32   33 2
    67   33   34 1
    68   34   39 ar
    69   34   35 ar
    70   35   36 ar
    71   35   70 1
    72   36   37 ar
    73   36   71 1
    74   37   38 ar
    75   37   72 1
    76   38   39 ar
    77   38   73 1
    78   39   40 1
    79   41   74 1
    80   41   75 1
    81   41   77 1
@<TRIPOS>MOLECULE
CHEMBL379809
   61    65     0     0     0
SMALL
USER_CHARGES

@<TRIPOS>ATOM
      1 C1         -0.0167    1.3781    0.0096 C.ar      1 <0>        -0.1161
      2 C2          1.1709    2.0855    0.0021 C.ar      1 <0>        -0.1217
      3 C3          2.3773    1.4107   -0.0130 C.ar      1 <0>        -0.1044
      4 C4          2.3960    0.0285   -0.0201 C.ar      1 <0>        -0.0642
      5 C5          1.2084   -0.6789   -0.0117 C.ar      1 <0>        -0.0878
      6 C6          0.0021   -0.0041    0.0020 C.ar      1 <0>        -0.1210
      7 C7          3.7112   -0.7071   -0.0376 C.3       1 <0>        -0.0671
      8 C8          3.7911   -1.5793   -1.2921 C.3       1 <0>         0.0903
      9 O1          3.8092   -0.7449   -2.4520 O.3       1 <0>        -0.5620
     10 C9          3.8156   -1.5785    1.1875 C.2       1 <0>         0.5217
     11 O2          2.9112   -1.6000    1.9953 O.2       1 <0>        -0.5140
     12 N1          4.9141   -2.3339    1.3855 N.am      1 <0>        -0.7292
     13 C10         5.0157   -3.1809    2.5765 C.3       1 <0>         0.1594
     14 C11         6.3308   -3.9166    2.5590 C.ar      1 <0>        -0.1032
     15 C12         6.4216   -5.1542    1.9475 C.ar      1 <0>        -0.0906
     16 C13         7.6253   -5.8350    1.9277 C.ar      1 <0>        -0.1153
     17 C14         8.7435   -5.2823    2.5187 C.ar      1 <0>        -0.0899
     18 C15         8.6580   -4.0360    3.1361 C.ar      1 <0>        -0.0510
     19 C16         7.4436   -3.3519    3.1481 C.ar      1 <0>        -0.0825
     20 C17         9.8562   -3.4369    3.7730 C.ar      1 <0>        -0.0614
     21 C18        10.2179   -2.1225    3.4831 C.ar      1 <0>        -0.0662
     22 C19        11.3329   -1.5615    4.0748 C.ar      1 <0>        -0.1169
     23 C20        12.0995   -2.2961    4.9577 C.ar      1 <0>        -0.0826
     24 C21        11.7523   -3.6133    5.2595 C.ar      1 <0>        -0.0926
     25 C22        10.6212   -4.1863    4.6686 C.ar      1 <0>         0.1560
     26 O3         10.2727   -5.4657    4.9600 O.3       1 <0>        -0.4819
     27 C23        12.5741   -4.3990    6.2044 C.2       1 <0>         0.1592
     28 C24        12.0887   -5.2542    7.1393 C.2       1 <0>        -0.1266
     29 C25        13.2404   -5.8093    7.8456 C.ar      1 <0>        -0.1367
     30 C26        13.4062   -6.7207    8.8883 C.ar      1 <0>         0.2059
     31 N2         14.6145   -7.0249    9.3145 N.ar      1 <0>        -0.4601
     32 H1         14.5259   -3.8474    5.6961 H         1 <0>         0.4367
     33 C27        15.7041   -6.4925    8.7859 C.ar      1 <0>         0.0983
     34 C28        15.6334   -5.5838    7.7527 C.ar      1 <0>        -0.1121
     35 C29        14.3824   -5.2222    7.2586 C.ar      1 <0>         0.1764
     36 N3         13.9494   -4.3795    6.2666 N.pl3     1 <0>        -0.5535
     37 H2         -0.9591    1.9053    0.0259 H         1 <0>         0.1220
     38 H3          1.1563    3.1654    0.0076 H         1 <0>         0.1226
     39 H4          3.3051    1.9634   -0.0196 H         1 <0>         0.1190
     40 H5          1.2231   -1.7588   -0.0176 H         1 <0>         0.1146
     41 H6         -0.9258   -0.5567    0.0082 H         1 <0>         0.1217
     42 H7          4.5299    0.0124   -0.0426 H         1 <0>         0.1127
     43 H8          4.7013   -2.1781   -1.2610 H         1 <0>         0.0511
     44 H9          2.9238   -2.2384   -1.3322 H         1 <0>         0.0552
     45 H10         3.8592   -1.2317   -3.2860 H         1 <0>         0.3857
     46 H11         5.6375   -2.3166    0.7395 H         1 <0>         0.4016
     47 H12         4.9588   -2.5596    3.4702 H         1 <0>         0.0793
     48 H13         4.1969   -3.9005    2.5815 H         1 <0>         0.0811
     49 H14         5.5490   -5.5906    1.4841 H         1 <0>         0.1289
     50 H15         7.6903   -6.8010    1.4492 H         1 <0>         0.1300
     51 H16         9.6829   -5.8149    2.5030 H         1 <0>         0.1180
     52 H17         7.3727   -2.3838    3.6214 H         1 <0>         0.1273
     53 H18         9.6245   -1.5407    2.7933 H         1 <0>         0.1394
     54 H19        11.6069   -0.5424    3.8454 H         1 <0>         0.1405
     55 H20        12.9701   -1.8501    5.4154 H         1 <0>         0.1298
     56 H21        10.6717   -6.1250    4.3759 H         1 <0>         0.3933
     57 H22        11.0494   -5.4809    7.3259 H         1 <0>         0.1828
     58 H23        12.5419   -7.1775    9.3473 H         1 <0>         0.2114
     59 H24        16.6714   -6.7765    9.1734 H         1 <0>         0.2078
     60 H25        16.5331   -5.1587    7.3331 H         1 <0>         0.1787
     61 H26        14.7088   -7.6607   10.0410 H         1 <0>         0.4521
@<TRIPOS>BOND
     1    1    6 ar
     2    1    2 ar
     3    1   37 1
     4    2    3 ar
     5    2   38 1
     6    3    4 ar
     7    3   39 1
     8    4    5 ar
     9    4    7 1
    10    5    6 ar
    11    5   40 1
    12    6   41 1
    13    7    8 1
    14    7   10 1
    15    7   42 1
    16    8    9 1
    17    8   43 1
    18    8   44 1
    19    9   45 1
    20   10   11 2
    21   10   12 am
    22   12   13 1
    23   12   46 1
    24   13   14 1
    25   13   47 1
    26   13   48 1
    27   14   19 ar
    28   14   15 ar
    29   15   16 ar
    30   15   49 1
    31   16   17 ar
    32   16   50 1
    33   17   18 ar
    34   17   51 1
    35   18   19 ar
    36   18   20 1
    37   19   52 1
    38   20   25 ar
    39   20   21 ar
    40   21   22 ar
    41   21   53 1
    42   22   23 ar
    43   22   54 1
    44   23   24 ar
    45   23   55 1
    46   24   25 ar
    47   24   27 1
    48   25   26 1
    49   26   56 1
    50   27   36 1
    51   27   28 2
    52   28   29 1
    53   28   57 1
    54   29   30 ar
    55   29   35 ar
    56   30   31 ar
    57   30   58 1
    58   31   33 ar
    59   31   61 1
    60   32   36 1
    61   33   34 ar
    62   33   59 1
    63   34   35 ar
    64   34   60 1
    65   35   36 1
@<TRIPOS>MOLECULE
CHEMBL379809__1
   61    65     0     0     0
SMALL
USER_CHARGES

@<TRIPOS>ATOM
      1 C1         -0.0167    1.3781    0.0096 C.ar      1 <0>        -0.1125
      2 C2          1.1709    2.0855    0.0021 C.ar      1 <0>        -0.1210
      3 C3          2.3773    1.4107   -0.0130 C.ar      1 <0>        -0.1067
      4 C4          2.3960    0.0285   -0.0201 C.ar      1 <0>        -0.0766
      5 C5          1.2084   -0.6789   -0.0117 C.ar      1 <0>        -0.0848
      6 C6          0.0021   -0.0041    0.0020 C.ar      1 <0>        -0.1208
      7 C7          3.7112   -0.7071   -0.0376 C.3       1 <0>        -0.0647
      8 C8          3.8172   -1.5918    1.2062 C.3       1 <0>         0.0885
      9 O1          5.1099   -2.1993    1.2498 O.3       1 <0>        -0.5761
     10 C9          3.7899   -1.5662   -1.2732 C.2       1 <0>         0.5204
     11 O2          2.8687   -1.5798   -2.0620 O.2       1 <0>        -0.5290
     12 N1          4.8839   -2.3194   -1.5018 N.am      1 <0>        -0.7184
     13 C10         4.9603   -3.1546   -2.7030 C.3       1 <0>         0.1583
     14 C11         6.2755   -3.8902   -2.7204 C.ar      1 <0>        -0.0990
     15 C12         7.3800   -3.3157   -3.3237 C.ar      1 <0>        -0.0904
     16 C13         8.5901   -3.9851   -3.3434 C.ar      1 <0>        -0.1155
     17 C14         8.7019   -5.2314   -2.7606 C.ar      1 <0>        -0.0911
     18 C15         7.5928   -5.8148   -2.1516 C.ar      1 <0>        -0.0526
     19 C16         6.3772   -5.1332   -2.1298 C.ar      1 <0>        -0.0805
     20 C17         7.7068   -7.1539   -1.5236 C.ar      1 <0>        -0.0593
     21 C18         7.2393   -7.3594   -0.2268 C.ar      1 <0>        -0.0661
     22 C19         7.3435   -8.6052    0.3606 C.ar      1 <0>        -0.1175
     23 C20         7.9114   -9.6578   -0.3296 C.ar      1 <0>        -0.0836
     24 C21         8.3847   -9.4702   -1.6286 C.ar      1 <0>        -0.0931
     25 C22         8.2773   -8.2128   -2.2322 C.ar      1 <0>         0.1556
     26 O3          8.7305   -8.0220   -3.4977 O.3       1 <0>        -0.4819
     27 C23         8.9929  -10.5977   -2.3664 C.2       1 <0>         0.1596
     28 C24         8.8096  -10.8594   -3.6851 C.2       1 <0>        -0.1268
     29 C25         9.5893  -12.0556   -3.9929 C.ar      1 <0>        -0.1366
     30 C26         9.8124  -12.8124   -5.1429 C.ar      1 <0>         0.2057
     31 N2         10.5933  -13.8718   -5.0959 N.ar      1 <0>        -0.4602
     32 H1         10.1223  -11.5632   -0.8952 H         1 <0>         0.4367
     33 C27        11.1898  -14.2598   -3.9808 C.ar      1 <0>         0.0981
     34 C28        11.0253  -13.5714   -2.7988 C.ar      1 <0>        -0.1122
     35 C29        10.2106  -12.4417   -2.7853 C.ar      1 <0>         0.1763
     36 N3          9.8369  -11.5396   -1.8220 N.pl3     1 <0>        -0.5534
     37 H2         -0.9591    1.9053    0.0259 H         1 <0>         0.1237
     38 H3          1.1563    3.1654    0.0076 H         1 <0>         0.1249
     39 H4          3.3051    1.9634   -0.0196 H         1 <0>         0.1223
     40 H5          1.2231   -1.7588   -0.0176 H         1 <0>         0.1171
     41 H6         -0.9258   -0.5567    0.0082 H         1 <0>         0.1233
     42 H7          4.5299    0.0124   -0.0426 H         1 <0>         0.1122
     43 H8          3.6716   -0.9830    2.0986 H         1 <0>         0.0648
     44 H9          3.0524   -2.3674    1.1667 H         1 <0>         0.0544
     45 H10         5.2482   -2.7755    2.0140 H         1 <0>         0.3879
     46 H11         5.6206   -2.3086   -0.8709 H         1 <0>         0.4111
     47 H12         4.1416   -3.8741   -2.6980 H         1 <0>         0.0756
     48 H13         4.8848   -2.5243   -3.5891 H         1 <0>         0.0779
     49 H14         7.2969   -2.3409   -3.7812 H         1 <0>         0.1283
     50 H15         9.4490   -3.5320   -3.8160 H         1 <0>         0.1295
     51 H16         9.6473   -5.7534   -2.7769 H         1 <0>         0.1173
     52 H17         5.5154   -5.5788   -1.6553 H         1 <0>         0.1259
     53 H18         6.7943   -6.5417    0.3207 H         1 <0>         0.1397
     54 H19         6.9790   -8.7568    1.3659 H         1 <0>         0.1399
     55 H20         7.9897  -10.6285    0.1374 H         1 <0>         0.1294
     56 H21         9.6573   -7.7505   -3.5469 H         1 <0>         0.3933
     57 H22         8.2029  -10.2919   -4.3752 H         1 <0>         0.1829
     58 H23         9.3435  -12.5293   -6.0738 H         1 <0>         0.2113
     59 H24        11.8201  -15.1367   -3.9972 H         1 <0>         0.2077
     60 H25        11.5196  -13.9024   -1.8974 H         1 <0>         0.1786
     61 H26        10.7356  -14.3852   -5.9065 H         1 <0>         0.4521
@<TRIPOS>BOND
     1    1    6 ar
     2    1    2 ar
     3    1   37 1
     4    2    3 ar
     5    2   38 1
     6    3    4 ar
     7    3   39 1
     8    4    5 ar
     9    4    7 1
    10    5    6 ar
    11    5   40 1
    12    6   41 1
    13    7    8 1
    14    7   10 1
    15    7   42 1
    16    8    9 1
    17    8   43 1
    18    8   44 1
    19    9   45 1
    20   10   11 2
    21   10   12 am
    22   12   13 1
    23   12   46 1
    24   13   14 1
    25   13   47 1
    26   13   48 1
    27   14   19 ar
    28   14   15 ar
    29   15   16 ar
    30   15   49 1
    31   16   17 ar
    32   16   50 1
    33   17   18 ar
    34   17   51 1
    35   18   19 ar
    36   18   20 1
    37   19   52 1
    38   20   25 ar
    39   20   21 ar
    40   21   22 ar
    41   21   53 1
    42   22   23 ar
    43   22   54 1
    44   23   24 ar
    45   23   55 1
    46   24   25 ar
    47   24   27 1
    48   25   26 1
    49   26   56 1
    50   27   36 1
    51   27   28 2
    52   28   29 1
    53   28   57 1
    54   29   30 ar
    55   29   35 ar
    56   30   31 ar
    57   30   58 1
    58   31   33 ar
    59   31   61 1
    60   32   36 1
    61   33   34 ar
    62   33   59 1
    63   34   35 ar
    64   34   60 1
    65   35   36 1
@<TRIPOS>MOLECULE
CHEMBL73178
   49    53     0     0     0
SMALL
USER_CHARGES

@<TRIPOS>ATOM
      1 C1         -0.0167    1.3788    0.0096 C.ar      1 <0>        -0.1142
      2 C2          1.1677    2.0877    0.0021 C.ar      1 <0>        -0.0541
      3 C3          2.3836    1.4075   -0.0131 C.ar      1 <0>        -0.0237
      4 C4          2.3965    0.0139   -0.0207 C.ar      1 <0>        -0.0423
      5 C5          1.2065   -0.6846   -0.0130 C.ar      1 <0>        -0.0426
      6 C6          0.0021   -0.0041    0.0020 C.ar      1 <0>        -0.0577
      7 N1          1.2186   -2.1647   -0.0215 N.pl3     1 <0>         0.0317
      8 O1          2.2704   -2.7605   -0.0352 O.2       1 <0>        -0.1509
      9 O2          0.1766   -2.7777   -0.0149 O.3       1 <0>        -0.1583
     10 C7          3.6598    2.1639   -0.0217 C.ar      1 <0>        -0.0784
     11 C8          4.6640    1.8444    0.8858 C.ar      1 <0>        -0.0543
     12 C9          5.8639    2.5541    0.8792 C.ar      1 <0>         0.0613
     13 C10         6.0608    3.5860   -0.0367 C.ar      1 <0>        -0.0491
     14 C11         5.0585    3.9103   -0.9471 C.ar      1 <0>        -0.0818
     15 C12         3.8555    3.1940   -0.9454 C.ar      1 <0>         0.1179
     16 O3          2.8792    3.5031   -1.8356 O.3       1 <0>        -0.4932
     17 C13         5.2668    5.0052   -1.9186 C.2       1 <0>         0.1622
     18 C14         5.8842    6.1821   -1.6496 C.2       1 <0>        -0.1726
     19 C15         5.8691    6.9619   -2.8871 C.ar      1 <0>        -0.1132
     20 C16         6.3416    8.2269   -3.2358 C.ar      1 <0>         0.0172
     21 C17         6.1626    8.6882   -4.5354 C.ar      1 <0>        -0.1953
     22 C18         5.5125    7.8850   -5.4822 C.ar      1 <0>        -0.0625
     23 C19         5.0488    6.6477   -5.1447 C.ar      1 <0>        -0.1107
     24 C20         5.2170    6.1641   -3.8490 C.ar      1 <0>         0.1515
     25 N2          4.8691    4.9834   -3.2356 N.pl3     1 <0>        -0.5601
     26 H1          4.4091    4.2461   -3.6665 H         1 <0>         0.4313
     27 C21         6.6579   10.0270   -4.9184 C.cat     1 <0>         0.6059
     28 N3          6.4867   10.4695   -6.1633 N.pl3     1 <0>        -0.7709
     29 N4          7.2755   10.7912   -4.0188 N.pl3     1 <0>        -0.7704
     30 C22         6.9300    2.2117    1.8466 C.2       1 <0>         0.0605
     31 N5          6.8871    1.2563    2.7770 N.2       1 <0>        -0.3583
     32 N6          8.0101    1.2811    3.4097 N.2       1 <0>        -0.1781
     33 N7          8.7544    2.2086    2.9178 N.2       1 <0>        -0.1808
     34 N8          8.1256    2.7937    1.9563 N.2       1 <0>        -0.3630
     35 H2         -0.9597    1.9050    0.0260 H         1 <0>         0.1489
     36 H3          1.1519    3.1676    0.0077 H         1 <0>         0.1367
     37 H4          3.3362   -0.5184   -0.0328 H         1 <0>         0.1573
     38 H5         -0.9270   -0.5547    0.0083 H         1 <0>         0.1539
     39 H6          4.5140    1.0455    1.5969 H         1 <0>         0.1448
     40 H7          6.9912    4.1346   -0.0400 H         1 <0>         0.1462
     41 H8          2.2563    4.1720   -1.5197 H         1 <0>         0.3856
     42 H9          6.3058    6.4858   -0.7028 H         1 <0>         0.1655
     43 H10         6.8417    8.8428   -2.5031 H         1 <0>         0.1377
     44 H11         5.3770    8.2499   -6.4896 H         1 <0>         0.1343
     45 H12         4.5494    6.0401   -5.8849 H         1 <0>         0.1414
     46 H13         6.0370    9.9131   -6.8183 H         1 <0>         0.4423
     47 H14         7.4002   10.4690   -3.1124 H         1 <0>         0.4435
     48 H15         7.6006   11.6698   -4.2702 H         1 <0>         0.4296
     49 H16         6.8117   11.3481   -6.4147 H         1 <0>         0.4291
@<TRIPOS>BOND
     1    1    6 ar
     2    1    2 ar
     3    1   35 1
     4    2    3 ar
     5    2   36 1
     6    3    4 ar
     7    3   10 1
     8    4    5 ar
     9    4   37 1
    10    5    6 ar
    11    5    7 1
    12    6   38 1
    13    7    8 2
    14    7    9 1
    15   10   15 ar
    16   10   11 ar
    17   11   12 ar
    18   11   39 1
    19   12   13 ar
    20   12   30 1
    21   13   14 ar
    22   13   40 1
    23   14   15 ar
    24   14   17 1
    25   15   16 1
    26   16   41 1
    27   17   25 1
    28   17   18 2
    29   18   19 1
    30   18   42 1
    31   19   24 ar
    32   19   20 ar
    33   20   21 ar
    34   20   43 1
    35   21   22 ar
    36   21   27 1
    37   22   23 ar
    38   22   44 1
    39   23   24 ar
    40   23   45 1
    41   24   25 1
    42   25   26 1
    43   27   28 2
    44   27   29 1
    45   28   46 1
    46   28   49 1
    47   29   47 1
    48   29   48 1
    49   30   31 2
    50   30   34 1
    51   31   32 1
    52   32   33 2
    53   33   34 1
@<TRIPOS>MOLECULE
CHEMBL73178__1
   48    52     0     0     0
SMALL
USER_CHARGES

@<TRIPOS>ATOM
      1 C1         -0.0167    1.3788    0.0096 C.ar      1 <0>        -0.1254
      2 C2          1.1677    2.0877    0.0021 C.ar      1 <0>        -0.0376
      3 C3          2.3836    1.4075   -0.0131 C.ar      1 <0>         0.0363
      4 C4          2.3965    0.0139   -0.0207 C.ar      1 <0>        -0.0651
      5 C5          1.2065   -0.6846   -0.0130 C.ar      1 <0>        -0.0521
      6 C6          0.0021   -0.0041    0.0020 C.ar      1 <0>        -0.0838
      7 N1          1.2186   -2.1647   -0.0215 N.pl3     1 <0>         0.0413
      8 O1          2.2704   -2.7605   -0.0352 O.2       1 <0>        -0.1659
      9 O2          0.1766   -2.7777   -0.0149 O.3       1 <0>        -0.1806
     10 C7          3.6598    2.1639   -0.0217 C.ar      1 <0>        -0.2314
     11 C8          4.6640    1.8444    0.8858 C.ar      1 <0>         0.0030
     12 C9          5.8639    2.5541    0.8792 C.ar      1 <0>        -0.0881
     13 C10         6.0608    3.5860   -0.0367 C.ar      1 <0>         0.0094
     14 C11         5.0585    3.9103   -0.9471 C.ar      1 <0>        -0.2481
     15 C12         3.8555    3.1940   -0.9454 C.ar      1 <0>         0.3148
     16 O3          2.8792    3.5031   -1.8356 O.3       1 <0>        -0.7159
     17 C13         5.2668    5.0052   -1.9186 C.2       1 <0>         0.2502
     18 C14         5.8842    6.1821   -1.6496 C.2       1 <0>        -0.2387
     19 C15         5.8691    6.9619   -2.8871 C.ar      1 <0>        -0.0993
     20 C16         6.3416    8.2269   -3.2358 C.ar      1 <0>         0.0030
     21 C17         6.1626    8.6882   -4.5354 C.ar      1 <0>        -0.2077
     22 C18         5.5125    7.8850   -5.4822 C.ar      1 <0>        -0.0799
     23 C19         5.0488    6.6477   -5.1447 C.ar      1 <0>        -0.1108
     24 C20         5.2170    6.1641   -3.8490 C.ar      1 <0>         0.1401
     25 N2          4.8691    4.9834   -3.2356 N.pl3     1 <0>        -0.5465
     26 H1          4.4091    4.2461   -3.6665 H         1 <0>         0.4315
     27 C21         6.6579   10.0270   -4.9184 C.cat     1 <0>         0.6056
     28 N3          6.4867   10.4695   -6.1633 N.pl3     1 <0>        -0.7792
     29 N4          7.2755   10.7912   -4.0188 N.pl3     1 <0>        -0.7774
     30 C22         6.9300    2.2117    1.8466 C.2       1 <0>         0.1129
     31 N5          6.8871    1.2563    2.7770 N.2       1 <0>        -0.3857
     32 N6          8.0101    1.2811    3.4097 N.2       1 <0>        -0.2032
     33 N7          8.7544    2.2086    2.9178 N.2       1 <0>        -0.2063
     34 N8          8.1256    2.7937    1.9563 N.2       1 <0>        -0.3900
     35 H2         -0.9597    1.9050    0.0260 H         1 <0>         0.1365
     36 H3          1.1519    3.1676    0.0077 H         1 <0>         0.1400
     37 H4          3.3362   -0.5184   -0.0328 H         1 <0>         0.1478
     38 H5         -0.9270   -0.5547    0.0083 H         1 <0>         0.1410
     39 H6          4.5140    1.0455    1.5969 H         1 <0>         0.1142
     40 H7          6.9912    4.1346   -0.0400 H         1 <0>         0.1153
     41 H8          6.3058    6.4858   -0.7028 H         1 <0>         0.1553
     42 H9          6.8417    8.8428   -2.5031 H         1 <0>         0.1295
     43 H10         5.3770    8.2499   -6.4896 H         1 <0>         0.1251
     44 H11         4.5494    6.0401   -5.8849 H         1 <0>         0.1343
     45 H12         6.0370    9.9131   -6.8183 H         1 <0>         0.4408
     46 H13         7.4002   10.4690   -3.1124 H         1 <0>         0.4430
     47 H14         7.6006   11.6698   -4.2702 H         1 <0>         0.4242
     48 H15         6.8117   11.3481   -6.4147 H         1 <0>         0.4235
@<TRIPOS>BOND
     1    1    6 ar
     2    1    2 ar
     3    1   35 1
     4    2    3 ar
     5    2   36 1
     6    3    4 ar
     7    3   10 1
     8    4    5 ar
     9    4   37 1
    10    5    6 ar
    11    5    7 1
    12    6   38 1
    13    7    8 2
    14    7    9 1
    15   10   15 ar
    16   10   11 ar
    17   11   12 ar
    18   11   39 1
    19   12   13 ar
    20   12   30 1
    21   13   14 ar
    22   13   40 1
    23   14   15 ar
    24   14   17 1
    25   15   16 1
    26   17   25 1
    27   17   18 2
    28   18   19 1
    29   18   41 1
    30   19   24 ar
    31   19   20 ar
    32   20   21 ar
    33   20   42 1
    34   21   22 ar
    35   21   27 1
    36   22   23 ar
    37   22   43 1
    38   23   24 ar
    39   23   44 1
    40   24   25 1
    41   25   26 1
    42   27   28 2
    43   27   29 1
    44   28   45 1
    45   28   48 1
    46   29   46 1
    47   29   47 1
    48   30   31 2
    49   30   34 1
    50   31   32 1
    51   32   33 2
    52   33   34 1
@<TRIPOS>MOLECULE
CHEMBL73178__2
   50    54     0     0     0
SMALL
USER_CHARGES

@<TRIPOS>ATOM
      1 C1         -0.0167    1.3788    0.0096 C.ar      1 <0>        -0.1100
      2 C2          1.1677    2.0877    0.0021 C.ar      1 <0>        -0.0511
      3 C3          2.3836    1.4075   -0.0132 C.ar      1 <0>        -0.0410
      4 C4          2.3966    0.0138   -0.0208 C.ar      1 <0>        -0.0422
      5 C5          1.2065   -0.6846   -0.0132 C.ar      1 <0>        -0.0415
      6 C6          0.0021   -0.0041    0.0020 C.ar      1 <0>        -0.0487
      7 N1          1.2185   -2.1647   -0.0218 N.pl3     1 <0>         0.0291
      8 O1          2.2704   -2.7605   -0.0354 O.2       1 <0>        -0.1527
      9 O2          0.1765   -2.7777   -0.0151 O.3       1 <0>        -0.1476
     10 C7          3.6598    2.1639   -0.0218 C.ar      1 <0>        -0.0720
     11 C8          4.6648    1.8442    0.8861 C.ar      1 <0>        -0.0346
     12 C9          5.8630    2.5528    0.8796 C.ar      1 <0>        -0.0063
     13 C10         6.0608    3.5831   -0.0348 C.ar      1 <0>        -0.0249
     14 C11         5.0589    3.9084   -0.9465 C.ar      1 <0>        -0.0735
     15 C12         3.8556    3.1936   -0.9450 C.ar      1 <0>         0.1588
     16 O3          2.8789    3.5041   -1.8350 O.3       1 <0>        -0.4891
     17 C13         5.2684    5.0035   -1.9174 C.2       1 <0>         0.1423
     18 C14         5.8861    6.1801   -1.6474 C.2       1 <0>        -0.1620
     19 C15         5.8723    6.9605   -2.8846 C.ar      1 <0>        -0.1170
     20 C16         6.3455    8.2254   -3.2324 C.ar      1 <0>         0.0172
     21 C17         6.1678    8.6873   -4.5320 C.ar      1 <0>        -0.1885
     22 C18         5.5182    7.8847   -5.4796 C.ar      1 <0>        -0.0567
     23 C19         5.0537    6.6474   -5.1430 C.ar      1 <0>        -0.1106
     24 C20         5.2207    6.1632   -3.8473 C.ar      1 <0>         0.1556
     25 N2          4.8718    4.9824   -3.2347 N.pl3     1 <0>        -0.5619
     26 H1          4.4122    4.2454   -3.6664 H         1 <0>         0.4320
     27 C21         6.6639   10.0260   -4.9141 C.cat     1 <0>         0.6048
     28 N3          6.4939   10.4691   -6.1589 N.pl3     1 <0>        -0.7668
     29 N4          7.2811   10.7897   -4.0136 N.pl3     1 <0>        -0.7686
     30 C22         6.9321    2.2089    1.8507 C.2       1 <0>         0.2054
     31 N5          6.8873    1.2647    2.7693 N.2       1 <0>        -0.2836
     32 N6          8.0068    1.2819    3.4074 N.pl3     1 <0>        -0.2172
     33 N7          8.7593    2.2068    2.9223 N.2       1 <0>        -0.0366
     34 N8          8.1330    2.7944    1.9599 N.2       1 <0>        -0.2663
     35 H2         -0.9597    1.9050    0.0260 H         1 <0>         0.1535
     36 H3          1.1519    3.1676    0.0077 H         1 <0>         0.1383
     37 H4          3.3362   -0.5185   -0.0330 H         1 <0>         0.1559
     38 H5         -0.9270   -0.5547    0.0083 H         1 <0>         0.1584
     39 H6          4.5148    1.0453    1.5972 H         1 <0>         0.1495
     40 H7          6.9915    4.1310   -0.0374 H         1 <0>         0.1542
     41 H8          2.2568    4.1734   -1.5187 H         1 <0>         0.3985
     42 H9          6.3070    6.4833   -0.7001 H         1 <0>         0.1653
     43 H10         6.8453    8.8409   -2.4990 H         1 <0>         0.1394
     44 H11         5.3837    8.2500   -6.4870 H         1 <0>         0.1378
     45 H12         4.5548    6.0403   -5.8838 H         1 <0>         0.1441
     46 H13         6.8195   11.3477   -6.4096 H         1 <0>         0.4316
     47 H14         7.4048   10.4670   -3.1073 H         1 <0>         0.4428
     48 H15         7.6067   11.6683   -4.2644 H         1 <0>         0.4318
     49 H16         6.0445    9.9131   -6.8145 H         1 <0>         0.4432
     50 H17         8.2449    0.6908    4.1388 H         1 <0>         0.4814
@<TRIPOS>BOND
     1    1    6 ar
     2    1    2 ar
     3    1   35 1
     4    2    3 ar
     5    2   36 1
     6    3    4 ar
     7    3   10 1
     8    4    5 ar
     9    4   37 1
    10    5    6 ar
    11    5    7 1
    12    6   38 1
    13    7    8 2
    14    7    9 1
    15   10   15 ar
    16   10   11 ar
    17   11   12 ar
    18   11   39 1
    19   12   13 ar
    20   12   30 1
    21   13   14 ar
    22   13   40 1
    23   14   15 ar
    24   14   17 1
    25   15   16 1
    26   16   41 1
    27   17   25 1
    28   17   18 2
    29   18   19 1
    30   18   42 1
    31   19   24 ar
    32   19   20 ar
    33   20   21 ar
    34   20   43 1
    35   21   22 ar
    36   21   27 1
    37   22   23 ar
    38   22   44 1
    39   23   24 ar
    40   23   45 1
    41   24   25 1
    42   25   26 1
    43   27   28 2
    44   27   29 1
    45   28   46 1
    46   28   49 1
    47   29   47 1
    48   29   48 1
    49   30   31 2
    50   30   34 1
    51   31   32 1
    52   32   33 1
    53   32   50 1
    54   33   34 2
@<TRIPOS>MOLECULE
CHEMBL198844
   49    51     0     0     0
SMALL
USER_CHARGES

@<TRIPOS>ATOM
      1 C1         -0.0119   -1.1465    0.4399 C.1       1 <0>        -0.1679
      2 C2         -0.0160    0.0149    0.2684 C.1       1 <0>        -0.1483
      3 C3         -0.0210    1.4316    0.0592 C.ar      1 <0>         0.0522
      4 C4         -1.2182    2.0948   -0.2145 C.ar      1 <0>        -0.1256
      5 C5         -1.2196    3.4600   -0.4151 C.ar      1 <0>        -0.0227
      6 C6         -0.0377    4.1744   -0.3459 C.ar      1 <0>        -0.1775
      7 C7          1.1577    3.5231   -0.0747 C.ar      1 <0>         0.1310
      8 C8          1.1693    2.1540    0.1339 C.ar      1 <0>        -0.1294
      9 O1          2.3166    4.2301   -0.0087 O.3       1 <0>        -0.2961
     10 C9          2.2158    5.6519   -0.1107 C.3       1 <0>         0.0479
     11 H1          1.3316    6.0150    0.4132 H         1 <0>         0.0976
     12 C10         3.4998    6.3372    0.4313 C.3       1 <0>        -0.1495
     13 C11         3.5035    7.6490   -0.3934 C.3       1 <0>         0.0515
     14 O2          3.0106    7.2778   -1.6906 O.3       1 <0>        -0.3776
     15 C12         2.2000    6.0970   -1.5889 C.3       1 <0>         0.0300
     16 C13        -2.5131    4.1744   -0.7110 C.3       1 <0>         0.0958
     17 C14        -3.2680    4.3993    0.5738 C.2       1 <0>         0.4929
     18 O3         -2.8524    5.2013    1.3926 O.co2     1 <0>        -0.6701
     19 O4         -4.2944    3.7793    0.7943 O.co2     1 <0>        -0.6677
     20 N1         -3.3248    3.3592   -1.6181 N.pl3     1 <0>        -0.6597
     21 C15        -4.2727    3.9643   -2.4368 C.ar      1 <0>         0.3117
     22 C16        -4.4449    5.3449   -2.3974 C.ar      1 <0>        -0.1958
     23 C17        -5.3818    5.9464   -3.2067 C.ar      1 <0>        -0.0013
     24 C18        -6.1604    5.1696   -4.0685 C.ar      1 <0>        -0.2546
     25 C19        -5.9854    3.7839   -4.1060 C.ar      1 <0>        -0.0020
     26 C20        -5.0433    3.1885   -3.2982 C.ar      1 <0>        -0.2058
     27 C21        -7.1667    5.8120   -4.9377 C.cat     1 <0>         0.6021
     28 N2         -7.9087    5.0698   -5.7592 N.pl3     1 <0>        -0.7829
     29 N3         -7.3330    7.1338   -4.9006 N.pl3     1 <0>        -0.7812
     30 H2         -0.0082   -2.1852    0.5933 H         1 <0>         0.2262
     31 H3         -2.1430    1.5397   -0.2696 H         1 <0>         0.1267
     32 H4         -0.0448    5.2428   -0.5038 H         1 <0>         0.1331
     33 H5          2.0981    1.6468    0.3498 H         1 <0>         0.1361
     34 H6          3.4142    6.5441    1.4981 H         1 <0>         0.0962
     35 H7          4.3847    5.7373    0.2191 H         1 <0>         0.0935
     36 H8          2.8443    8.3860    0.0651 H         1 <0>         0.0681
     37 H9          4.5165    8.0434   -0.4723 H         1 <0>         0.0945
     38 H10         2.6155    5.3089   -2.2168 H         1 <0>         0.0829
     39 H11         1.1782    6.3175   -1.8977 H         1 <0>         0.0764
     40 H12        -2.2986    5.1350   -1.1793 H         1 <0>         0.0964
     41 H13        -3.2013    2.3976   -1.6477 H         1 <0>         0.4071
     42 H14        -3.8431    5.9448   -1.7308 H         1 <0>         0.1422
     43 H15        -5.5152    7.0177   -3.1754 H         1 <0>         0.1286
     44 H16        -6.5860    3.1810   -4.7708 H         1 <0>         0.1281
     45 H17        -4.9044    2.1179   -3.3299 H         1 <0>         0.1392
     46 H18        -7.7878    4.1078   -5.7862 H         1 <0>         0.4392
     47 H19        -6.7929    7.6739   -4.3027 H         1 <0>         0.4406
     48 H20        -7.9940    7.5557   -5.4716 H         1 <0>         0.4241
     49 H21        -8.5697    5.4917   -6.3302 H         1 <0>         0.4239
@<TRIPOS>BOND
     1    1    2 3
     2    1   30 1
     3    2    3 1
     4    3    8 ar
     5    3    4 ar
     6    4    5 ar
     7    4   31 1
     8    5    6 ar
     9    5   16 1
    10    6    7 ar
    11    6   32 1
    12    7    8 ar
    13    7    9 1
    14    8   33 1
    15    9   10 1
    16   10   11 1
    17   10   15 1
    18   10   12 1
    19   12   13 1
    20   12   34 1
    21   12   35 1
    22   13   14 1
    23   13   36 1
    24   13   37 1
    25   14   15 1
    26   15   38 1
    27   15   39 1
    28   16   17 1
    29   16   20 1
    30   16   40 1
    31   17   18 2
    32   17   19 1
    33   20   21 1
    34   20   41 1
    35   21   26 ar
    36   21   22 ar
    37   22   23 ar
    38   22   42 1
    39   23   24 ar
    40   23   43 1
    41   24   25 ar
    42   24   27 1
    43   25   26 ar
    44   25   44 1
    45   26   45 1
    46   27   28 2
    47   27   29 1
    48   28   46 1
    49   28   49 1
    50   29   47 1
    51   29   48 1
@<TRIPOS>MOLECULE
CHEMBL198844__1
   49    51     0     0     0
SMALL
USER_CHARGES

@<TRIPOS>ATOM
      1 C1         -0.0119   -1.1465    0.4399 C.1       1 <0>        -0.1676
      2 C2         -0.0160    0.0149    0.2684 C.1       1 <0>        -0.1482
      3 C3         -0.0210    1.4316    0.0592 C.ar      1 <0>         0.0518
      4 C4         -1.2182    2.0948   -0.2145 C.ar      1 <0>        -0.1198
      5 C5         -1.2196    3.4600   -0.4151 C.ar      1 <0>        -0.0272
      6 C6         -0.0377    4.1744   -0.3459 C.ar      1 <0>        -0.1823
      7 C7          1.1577    3.5231   -0.0747 C.ar      1 <0>         0.1306
      8 C8          1.1693    2.1540    0.1339 C.ar      1 <0>        -0.1294
      9 O1          2.3166    4.2301   -0.0087 O.3       1 <0>        -0.2963
     10 C9          2.2158    5.6519   -0.1107 C.3       1 <0>         0.0513
     11 H1          1.3316    6.0150    0.4132 H         1 <0>         0.0913
     12 C10         3.4998    6.3372    0.4313 C.3       1 <0>        -0.1492
     13 C11         3.5035    7.6490   -0.3934 C.3       1 <0>         0.0514
     14 O2          3.0106    7.2778   -1.6906 O.3       1 <0>        -0.3751
     15 C12         2.2000    6.0970   -1.5889 C.3       1 <0>         0.0261
     16 C13        -2.5131    4.1744   -0.7110 C.3       1 <0>         0.0971
     17 C14        -2.8634    3.9972   -2.1660 C.2       1 <0>         0.4940
     18 O3         -3.5436    3.0486   -2.5180 O.co2     1 <0>        -0.6664
     19 O4         -2.4666    4.8024   -2.9910 O.co2     1 <0>        -0.6712
     20 N1         -3.5815    3.6144    0.1203 N.pl3     1 <0>        -0.6612
     21 C15        -4.6965    4.3855    0.4324 C.ar      1 <0>         0.3049
     22 C16        -4.7983    5.6869   -0.0506 C.ar      1 <0>        -0.1976
     23 C17        -5.9005    6.4520    0.2563 C.ar      1 <0>        -0.0010
     24 C18        -6.9179    5.9211    1.0534 C.ar      1 <0>        -0.2538
     25 C19        -6.8129    4.6144    1.5368 C.ar      1 <0>        -0.0026
     26 C20        -5.7108    3.8521    1.2223 C.ar      1 <0>        -0.2054
     27 C21        -8.1015    6.7397    1.3848 C.cat     1 <0>         0.6023
     28 N2         -9.0711    6.2319    2.1452 N.pl3     1 <0>        -0.7826
     29 N3         -8.2001    7.9861    0.9234 N.pl3     1 <0>        -0.7807
     30 H2         -0.0082   -2.1852    0.5933 H         1 <0>         0.2262
     31 H3         -2.1430    1.5397   -0.2696 H         1 <0>         0.1290
     32 H4         -0.0447    5.2428   -0.5038 H         1 <0>         0.1334
     33 H5          2.0981    1.6468    0.3498 H         1 <0>         0.1361
     34 H6          3.4142    6.5441    1.4981 H         1 <0>         0.0932
     35 H7          4.3847    5.7373    0.2191 H         1 <0>         0.0942
     36 H8          2.8443    8.3860    0.0651 H         1 <0>         0.0652
     37 H9          4.5165    8.0434   -0.4723 H         1 <0>         0.0938
     38 H10         2.6155    5.3089   -2.2168 H         1 <0>         0.0855
     39 H11         1.1782    6.3175   -1.8977 H         1 <0>         0.0841
     40 H12        -2.4003    5.2360   -0.4912 H         1 <0>         0.0959
     41 H13        -3.5115    2.7060    0.4530 H         1 <0>         0.4080
     42 H14        -4.0114    6.0969   -0.6664 H         1 <0>         0.1462
     43 H15        -5.9788    7.4619   -0.1184 H         1 <0>         0.1293
     44 H16        -7.5976    4.2015    2.1534 H         1 <0>         0.1285
     45 H17        -5.6313    2.8404    1.5920 H         1 <0>         0.1397
     46 H18        -8.9994    5.3248    2.4810 H         1 <0>         0.4393
     47 H19        -7.4944    8.3556    0.3699 H         1 <0>         0.4408
     48 H20        -8.9775    8.5238    1.1410 H         1 <0>         0.4243
     49 H21        -9.8486    6.7696    2.3629 H         1 <0>         0.4241
@<TRIPOS>BOND
     1    1    2 3
     2    1   30 1
     3    2    3 1
     4    3    8 ar
     5    3    4 ar
     6    4    5 ar
     7    4   31 1
     8    5    6 ar
     9    5   16 1
    10    6    7 ar
    11    6   32 1
    12    7    8 ar
    13    7    9 1
    14    8   33 1
    15    9   10 1
    16   10   11 1
    17   10   15 1
    18   10   12 1
    19   12   13 1
    20   12   34 1
    21   12   35 1
    22   13   14 1
    23   13   36 1
    24   13   37 1
    25   14   15 1
    26   15   38 1
    27   15   39 1
    28   16   17 1
    29   16   20 1
    30   16   40 1
    31   17   18 2
    32   17   19 1
    33   20   21 1
    34   20   41 1
    35   21   26 ar
    36   21   22 ar
    37   22   23 ar
    38   22   42 1
    39   23   24 ar
    40   23   43 1
    41   24   25 ar
    42   24   27 1
    43   25   26 ar
    44   25   44 1
    45   26   45 1
    46   27   28 2
    47   27   29 1
    48   28   46 1
    49   28   49 1
    50   29   47 1
    51   29   48 1
@<TRIPOS>MOLECULE
CHEMBL142205
   63    65     0     0     0
SMALL
USER_CHARGES

@<TRIPOS>ATOM
      1 C1          0.1686    1.0792    0.1730 C.3       1 <0>        -0.1706
      2 C2         -0.0808   -0.4302    0.1934 C.3       1 <0>         0.1444
      3 C3          0.4667   -1.0200    1.4947 C.3       1 <0>        -0.1622
      4 N1         -1.5203   -0.6885    0.1078 N.pl3     1 <0>        -0.7176
      5 C4         -2.1494   -0.7369   -1.1412 C.2       1 <0>         0.1150
      6 C5         -1.4186   -0.5478   -2.2959 C.2       1 <0>        -0.1544
      7 C6         -2.0686   -0.6006   -3.5325 C.2       1 <0>        -0.1295
      8 C7         -3.4225   -0.8391   -3.5839 C.2       1 <0>         0.1189
      9 N2         -4.1405   -1.0252   -2.4330 N.am      1 <0>        -0.4591
     10 C8         -3.5363   -0.9854   -1.2305 C.2       1 <0>         0.5207
     11 O1         -4.1902   -1.1593   -0.2146 O.2       1 <0>        -0.5548
     12 C9         -5.5815   -1.2774   -2.5114 C.3       1 <0>         0.0771
     13 C10        -5.8353   -2.7619   -2.4577 C.2       1 <0>         0.5120
     14 O2         -4.9042   -3.5333   -2.3633 O.2       1 <0>        -0.5088
     15 N3         -7.0970   -3.2323   -2.5146 N.am      1 <0>        -0.7297
     16 C11        -7.3437   -4.6755   -2.4624 C.3       1 <0>         0.1479
     17 C12        -8.8261   -4.9349   -2.5430 C.ar      1 <0>        -0.0359
     18 C13        -9.5794   -4.9918   -1.3840 C.ar      1 <0>        -0.0950
     19 C14       -10.9368   -5.2294   -1.4511 C.ar      1 <0>        -0.0569
     20 C15       -11.5496   -5.4120   -2.6911 C.ar      1 <0>        -0.1509
     21 C16       -10.7845   -5.3530   -3.8562 C.ar      1 <0>        -0.0579
     22 C17        -9.4287   -5.1095   -3.7761 C.ar      1 <0>        -0.0953
     23 C18       -13.0050   -5.6677   -2.7701 C.cat     1 <0>         0.6002
     24 N4        -13.5869   -5.8415   -3.9550 N.pl3     1 <0>        -0.7610
     25 N5        -13.7325   -5.7239   -1.6564 N.pl3     1 <0>        -0.7603
     26 C19        -4.1076   -0.8944   -4.8918 C.ar      1 <0>         0.0365
     27 C20        -4.0068    0.1772   -5.7801 C.ar      1 <0>        -0.2209
     28 C21        -4.6509    0.1215   -7.0071 C.ar      1 <0>         0.2640
     29 C22        -5.3958   -0.9987   -7.3521 C.ar      1 <0>        -0.2674
     30 C23        -5.4987   -2.0669   -6.4705 C.ar      1 <0>         0.2599
     31 C24        -4.8523   -2.0208   -5.2442 C.ar      1 <0>        -0.2459
     32 N6         -6.2498   -3.1912   -6.8214 N.pl3     1 <0>        -0.8771
     33 N7         -4.5505    1.1938   -7.8969 N.pl3     1 <0>        -0.8735
     34 H1          1.2397    1.2713    0.2367 H         1 <0>         0.0670
     35 H2         -0.2214    1.4994   -0.7541 H         1 <0>         0.0599
     36 H3         -0.3347    1.5421    1.0218 H         1 <0>         0.0589
     37 H4          0.4225   -0.8932   -0.6554 H         1 <0>         0.0813
     38 H5         -0.0366   -0.5571    2.3435 H         1 <0>         0.0615
     39 H6          0.2890   -2.0954    1.5092 H         1 <0>         0.0622
     40 H7          1.5377   -0.8279    1.5584 H         1 <0>         0.0748
     41 H8         -2.0374   -0.8260    0.9169 H         1 <0>         0.4058
     42 H9         -0.3561   -0.3608   -2.2452 H         1 <0>         0.1354
     43 H10        -1.5096   -0.4541   -4.4449 H         1 <0>         0.1456
     44 H11        -6.0813   -0.7928   -1.6727 H         1 <0>         0.1234
     45 H12        -5.9702   -0.8759   -3.4472 H         1 <0>         0.1288
     46 H13        -7.8417   -2.6154   -2.5901 H         1 <0>         0.4032
     47 H14        -6.8439   -5.1601   -3.3012 H         1 <0>         0.0890
     48 H15        -6.9550   -5.0769   -1.5266 H         1 <0>         0.0901
     49 H16        -9.1038   -4.8503   -0.4247 H         1 <0>         0.1518
     50 H17       -11.5237   -5.2743   -0.5455 H         1 <0>         0.1407
     51 H18       -11.2530   -5.4938   -4.8190 H         1 <0>         0.1401
     52 H19        -8.8360   -5.0596   -4.6775 H         1 <0>         0.1501
     53 H20       -13.0569   -5.8006   -4.7663 H         1 <0>         0.4443
     54 H21       -13.3085   -5.5973   -0.7933 H         1 <0>         0.4448
     55 H22       -14.6865   -5.8915   -1.7083 H         1 <0>         0.4344
     56 H23        -3.4283    1.0489   -5.5121 H         1 <0>         0.1259
     57 H24        -5.8965   -1.0392   -8.3082 H         1 <0>         0.1191
     58 H25        -4.9290   -2.8537   -4.5610 H         1 <0>         0.1211
     59 H26        -6.6991   -3.2256   -7.6804 H         1 <0>         0.3981
     60 H27        -6.3221   -3.9376   -6.2060 H         1 <0>         0.3945
     61 H28        -4.0307    1.9766   -7.6564 H         1 <0>         0.4018
     62 H29        -5.0007    1.1554   -8.7553 H         1 <0>         0.3996
     63 H30       -14.5409   -6.0092   -4.0068 H         1 <0>         0.4343
@<TRIPOS>BOND
     1    1    2 1
     2    1   34 1
     3    1   35 1
     4    1   36 1
     5    2    3 1
     6    2    4 1
     7    2   37 1
     8    3   38 1
     9    3   39 1
    10    3   40 1
    11    4    5 1
    12    4   41 1
    13    5   10 1
    14    5    6 2
    15    6    7 1
    16    6   42 1
    17    7    8 2
    18    7   43 1
    19    8    9 1
    20    8   26 1
    21    9   10 am
    22    9   12 1
    23   10   11 2
    24   12   13 1
    25   12   44 1
    26   12   45 1
    27   13   14 2
    28   13   15 am
    29   15   16 1
    30   15   46 1
    31   16   17 1
    32   16   47 1
    33   16   48 1
    34   17   22 ar
    35   17   18 ar
    36   18   19 ar
    37   18   49 1
    38   19   20 ar
    39   19   50 1
    40   20   21 ar
    41   20   23 1
    42   21   22 ar
    43   21   51 1
    44   22   52 1
    45   23   24 2
    46   23   25 1
    47   24   53 1
    48   24   63 1
    49   25   54 1
    50   25   55 1
    51   26   31 ar
    52   26   27 ar
    53   27   28 ar
    54   27   56 1
    55   28   29 ar
    56   28   33 1
    57   29   30 ar
    58   29   57 1
    59   30   31 ar
    60   30   32 1
    61   31   58 1
    62   32   59 1
    63   32   60 1
    64   33   61 1
    65   33   62 1
@<TRIPOS>MOLECULE
CHEMBL372847
   63    67     0     0     0
SMALL
USER_CHARGES

@<TRIPOS>ATOM
      1 C1          3.1475    3.7567    3.0757 C.ar      1 <0>        -0.1106
      2 C2          3.1539    2.3639    3.1014 C.ar      1 <0>        -0.1024
      3 C3          3.7268    1.6475    2.0939 C.ar      1 <0>        -0.1098
      4 C4          4.3184    2.3180    1.0148 C.ar      1 <0>        -0.0149
      5 C5          4.3126    3.7337    0.9864 C.ar      1 <0>        -0.0548
      6 C6          3.7130    4.4406    2.0433 C.ar      1 <0>        -0.1035
      7 C7          4.9052    4.4074   -0.0955 C.ar      1 <0>        -0.0748
      8 C8          5.4807    3.7009   -1.1089 C.ar      1 <0>        -0.1280
      9 C9          5.4958    2.3119   -1.0990 C.ar      1 <0>        -0.0793
     10 C10         4.9232    1.6059   -0.0512 C.ar      1 <0>        -0.1195
     11 C11         4.9435    0.1315   -0.0463 C.2       1 <0>         0.5706
     12 O1          3.9042   -0.4905    0.0620 O.2       1 <0>        -0.5171
     13 N1          6.1139   -0.5267   -0.1620 N.am      1 <0>        -0.6056
     14 C12         7.3754    0.2180   -0.1705 C.3       1 <0>         0.1040
     15 C13         7.8919    0.3625    1.2624 C.3       1 <0>        -0.0977
     16 C14         9.1897    1.1287    1.2537 C.ar      1 <0>        -0.0949
     17 C15        10.3895    0.4534    1.1293 C.ar      1 <0>        -0.0881
     18 C16        11.5802    1.1550    1.1207 C.ar      1 <0>        -0.1529
     19 C17        11.5710    2.5346    1.2368 C.ar      1 <0>         0.0994
     20 C18        10.3687    3.2099    1.3614 C.ar      1 <0>        -0.1482
     21 C19         9.1790    2.5066    1.3644 C.ar      1 <0>        -0.0809
     22 F1         12.7344    3.2214    1.2290 F         1 <0>        -0.1374
     23 C20         6.1245   -1.9870   -0.2793 C.3       1 <0>         0.1435
     24 C21         6.1749   -2.3737   -1.7350 C.ar      1 <0>        -0.0839
     25 C22         4.9895   -2.6514   -2.4131 C.ar      1 <0>        -0.0614
     26 C23         4.9998   -3.0035   -3.7281 C.ar      1 <0>        -0.1133
     27 C24         6.2214   -3.0892   -4.4166 C.ar      1 <0>        -0.0111
     28 C25         6.2647   -3.4500   -5.7758 C.ar      1 <0>        -0.0783
     29 C26         7.4568   -3.5263   -6.4204 C.ar      1 <0>        -0.0964
     30 C27         8.6595   -3.2481   -5.7473 C.ar      1 <0>        -0.1582
     31 C28         8.6503   -2.8901   -4.4103 C.ar      1 <0>        -0.0158
     32 C29         7.4276   -2.8063   -3.7270 C.ar      1 <0>        -0.0656
     33 C30         7.3768   -2.4411   -2.3697 C.ar      1 <0>        -0.0847
     34 C31         9.9448   -3.3394   -6.4736 C.cat     1 <0>         0.6020
     35 N2         10.0802   -4.1985   -7.4822 N.pl3     1 <0>        -0.7581
     36 N3         10.9667   -2.5625   -6.1189 N.pl3     1 <0>        -0.7619
     37 H1          2.6834    4.3018    3.8844 H         1 <0>         0.1286
     38 H2          2.6987    1.8447    3.9318 H         1 <0>         0.1276
     39 H3          3.7253    0.5680    2.1269 H         1 <0>         0.1304
     40 H4          3.7006    5.5205    2.0361 H         1 <0>         0.1324
     41 H5          4.9042    5.4871   -0.1240 H         1 <0>         0.1338
     42 H6          5.9327    4.2303   -1.9346 H         1 <0>         0.1305
     43 H7          5.9582    1.7764   -1.9150 H         1 <0>         0.1255
     44 H8          8.1107   -0.3195   -0.7693 H         1 <0>         0.0801
     45 H9          7.2108    1.2067   -0.5988 H         1 <0>         0.0951
     46 H10         7.1567    0.9001    1.8612 H         1 <0>         0.0809
     47 H11         8.0566   -0.6262    1.6908 H         1 <0>         0.0802
     48 H12        10.3965   -0.6228    1.0391 H         1 <0>         0.1306
     49 H13        12.5175    0.6272    1.0239 H         1 <0>         0.1356
     50 H14        10.3603    4.2860    1.4524 H         1 <0>         0.1377
     51 H15         8.2407    3.0335    1.4571 H         1 <0>         0.1326
     52 H16         6.9998   -2.3863    0.2332 H         1 <0>         0.0948
     53 H17         5.2208   -2.3945    0.1738 H         1 <0>         0.1067
     54 H18         4.0483   -2.5867   -1.8873 H         1 <0>         0.1414
     55 H19         4.0728   -3.2165   -4.2398 H         1 <0>         0.1423
     56 H20         5.3492   -3.6665   -6.3063 H         1 <0>         0.1485
     57 H21         7.4819   -3.8046   -7.4636 H         1 <0>         0.1368
     58 H22         9.5765   -2.6776   -3.8971 H         1 <0>         0.1427
     59 H23         8.2873   -2.2189   -1.8329 H         1 <0>         0.1372
     60 H24         9.3359   -4.7643   -7.7406 H         1 <0>         0.4469
     61 H25        10.8681   -1.9368   -5.3843 H         1 <0>         0.4450
     62 H26        11.8096   -2.6223   -6.5952 H         1 <0>         0.4330
     63 H27        10.9231   -4.2583   -7.9585 H         1 <0>         0.4327
@<TRIPOS>BOND
     1    1    6 ar
     2    1    2 ar
     3    1   37 1
     4    2    3 ar
     5    2   38 1
     6    3    4 ar
     7    3   39 1
     8    4   10 ar
     9    4    5 ar
    10    5    6 ar
    11    5    7 ar
    12    6   40 1
    13    7    8 ar
    14    7   41 1
    15    8    9 ar
    16    8   42 1
    17    9   10 ar
    18    9   43 1
    19   10   11 1
    20   11   12 2
    21   11   13 am
    22   13   14 1
    23   13   23 1
    24   14   15 1
    25   14   44 1
    26   14   45 1
    27   15   16 1
    28   15   46 1
    29   15   47 1
    30   16   21 ar
    31   16   17 ar
    32   17   18 ar
    33   17   48 1
    34   18   19 ar
    35   18   49 1
    36   19   20 ar
    37   19   22 1
    38   20   21 ar
    39   20   50 1
    40   21   51 1
    41   23   24 1
    42   23   52 1
    43   23   53 1
    44   24   33 ar
    45   24   25 ar
    46   25   26 ar
    47   25   54 1
    48   26   27 ar
    49   26   55 1
    50   27   32 ar
    51   27   28 ar
    52   28   29 ar
    53   28   56 1
    54   29   30 ar
    55   29   57 1
    56   30   31 ar
    57   30   34 1
    58   31   32 ar
    59   31   58 1
    60   32   33 ar
    61   33   59 1
    62   34   35 2
    63   34   36 1
    64   35   60 1
    65   35   63 1
    66   36   61 1
    67   36   62 1
@<TRIPOS>MOLECULE
CHEMBL430990
   52    56     0     0     0
SMALL
USER_CHARGES

@<TRIPOS>ATOM
      1 C1         -0.0166    1.3763    0.0096 C.ar      1 <0>        -0.1244
      2 C2          1.1668    2.0887    0.0021 C.ar      1 <0>        -0.1183
      3 C3          2.3884    1.4169   -0.0136 C.ar      1 <0>        -0.0455
      4 C4          2.4145    0.0256   -0.0214 C.ar      1 <0>        -0.0831
      5 C5          1.2186   -0.6877   -0.0133 C.ar      1 <0>         0.0510
      6 C6          0.0021   -0.0041    0.0020 C.ar      1 <0>        -0.1025
      7 C7          1.2377   -2.1681   -0.0220 C.2       1 <0>         0.0734
      8 N1          0.1793   -2.9799   -0.0159 N.2       1 <0>        -0.3710
      9 N2          0.6202   -4.1913   -0.0280 N.2       1 <0>        -0.1948
     10 N3          1.9070   -4.1747   -0.0415 N.2       1 <0>        -0.1900
     11 N4          2.3166   -2.9522   -0.0432 N.2       1 <0>        -0.3597
     12 C8          3.6581    2.1840   -0.0226 C.ar      1 <0>        -0.0501
     13 C9          4.6684    1.8732    0.8857 C.ar      1 <0>        -0.0621
     14 C10         5.8519    2.5856    0.8799 C.ar      1 <0>        -0.0186
     15 C11         6.0459    3.6107   -0.0246 C.ar      1 <0>        -0.0680
     16 C12         5.0454    3.9355   -0.9411 C.ar      1 <0>        -0.0975
     17 C13         3.8462    3.2151   -0.9447 C.ar      1 <0>         0.1107
     18 O1          2.8689    3.5205   -1.8363 O.3       1 <0>        -0.4906
     19 C14         5.2537    5.0338   -1.9084 C.2       1 <0>         0.1852
     20 C15         5.8653    6.2125   -1.6332 C.2       1 <0>        -0.1914
     21 C16         5.8532    6.9956   -2.8687 C.ar      1 <0>        -0.1101
     22 C17         6.3225    8.2633   -3.2117 C.ar      1 <0>         0.0137
     23 C18         6.1480    8.7274   -4.5109 C.ar      1 <0>        -0.2002
     24 C19         5.5052    7.9245   -5.4629 C.ar      1 <0>        -0.0678
     25 C20         5.0450    6.6843   -5.1311 C.ar      1 <0>        -0.1083
     26 C21         5.2088    6.1978   -3.8359 C.ar      1 <0>         0.1500
     27 N5          4.8620    5.0143   -3.2273 N.pl3     1 <0>        -0.5565
     28 H1          4.4072    4.2764   -3.6625 H         1 <0>         0.4342
     29 C22         6.6404   10.0689   -4.8881 C.cat     1 <0>         0.6066
     30 N6          6.4736   10.5142   -6.1326 N.pl3     1 <0>        -0.7735
     31 N7          7.2511   10.8329   -3.9835 N.pl3     1 <0>        -0.7735
     32 C23         6.9377    2.2421    1.8670 C.3       1 <0>        -0.1605
     33 C24         7.8511    1.2039    1.2681 C.2       1 <0>         0.4960
     34 O2          7.6399    0.7819    0.1439 O.co2     1 <0>        -0.6824
     35 O3          8.8011    0.7859    1.9077 O.co2     1 <0>        -0.6991
     36 H2         -0.9603    1.9013    0.0260 H         1 <0>         0.1172
     37 H3          1.1457    3.1685    0.0082 H         1 <0>         0.1073
     38 H4          3.3585   -0.4988   -0.0339 H         1 <0>         0.1335
     39 H5         -0.9263   -0.5558    0.0083 H         1 <0>         0.1270
     40 H6          4.5254    1.0730    1.5968 H         1 <0>         0.1319
     41 H7          6.9742    4.1627   -0.0224 H         1 <0>         0.1261
     42 H8          2.2419    4.1854   -1.5201 H         1 <0>         0.3791
     43 H9          6.2814    6.5152   -0.6837 H         1 <0>         0.1624
     44 H10         6.8167    8.8792   -2.4749 H         1 <0>         0.1348
     45 H11         5.3726    8.2919   -6.4698 H         1 <0>         0.1318
     46 H12         4.5516    6.0768   -5.8753 H         1 <0>         0.1411
     47 H13         6.0289    9.9579   -6.7912 H         1 <0>         0.4422
     48 H14         7.3726   10.5087   -3.0774 H         1 <0>         0.4430
     49 H15         7.5743   11.7134   -4.2311 H         1 <0>         0.4274
     50 H16         7.5115    3.1385    2.1024 H         1 <0>         0.0710
     51 H17         6.4885    1.8484    2.7788 H         1 <0>         0.0756
     52 H18         6.7967   11.3946   -6.3801 H         1 <0>         0.4269
@<TRIPOS>BOND
     1    1    6 ar
     2    1    2 ar
     3    1   36 1
     4    2    3 ar
     5    2   37 1
     6    3    4 ar
     7    3   12 1
     8    4    5 ar
     9    4   38 1
    10    5    6 ar
    11    5    7 1
    12    6   39 1
    13    7    8 2
    14    7   11 1
    15    8    9 1
    16    9   10 2
    17   10   11 1
    18   12   17 ar
    19   12   13 ar
    20   13   14 ar
    21   13   40 1
    22   14   15 ar
    23   14   32 1
    24   15   16 ar
    25   15   41 1
    26   16   17 ar
    27   16   19 1
    28   17   18 1
    29   18   42 1
    30   19   27 1
    31   19   20 2
    32   20   21 1
    33   20   43 1
    34   21   26 ar
    35   21   22 ar
    36   22   23 ar
    37   22   44 1
    38   23   24 ar
    39   23   29 1
    40   24   25 ar
    41   24   45 1
    42   25   26 ar
    43   25   46 1
    44   26   27 1
    45   27   28 1
    46   29   30 2
    47   29   31 1
    48   30   47 1
    49   30   52 1
    50   31   48 1
    51   31   49 1
    52   32   33 1
    53   32   50 1
    54   32   51 1
    55   33   34 2
    56   33   35 1
@<TRIPOS>MOLECULE
CHEMBL179983
   58    60     0     0     0
SMALL
USER_CHARGES

@<TRIPOS>ATOM
      1 C1         -0.0173    1.4248    0.0099 C.3       1 <0>         0.0234
      2 O1          0.0021   -0.0041    0.0020 O.3       1 <0>        -0.3018
      3 C2         -1.2011   -0.6379    0.0101 C.ar      1 <0>         0.1176
      4 C3         -2.3743    0.0994    0.0195 C.ar      1 <0>        -0.1701
      5 C4         -3.5965   -0.5465    0.0272 C.ar      1 <0>        -0.0858
      6 C5         -3.6519   -1.9279    0.0261 C.ar      1 <0>        -0.1201
      7 C6         -2.4852   -2.6694    0.0172 C.ar      1 <0>        -0.1640
      8 C7         -1.2569   -2.0283    0.0032 C.ar      1 <0>         0.1086
      9 O2         -0.1083   -2.7563   -0.0116 O.3       1 <0>        -0.3004
     10 C8         -0.2420   -4.1790   -0.0180 C.3       1 <0>         0.0241
     11 C9         -4.9869   -2.6268    0.0350 C.3       1 <0>         0.1738
     12 C10        -5.5566   -2.6397   -1.3601 C.2       1 <0>         0.5159
     13 O3         -6.6234   -2.1082   -1.5844 O.2       1 <0>        -0.5255
     14 N1         -4.8805   -3.2418   -2.3585 N.am      1 <0>        -0.7115
     15 C11        -5.4343   -3.2543   -3.7148 C.3       1 <0>         0.1623
     16 C12        -4.4911   -3.9846   -4.6358 C.ar      1 <0>        -0.1186
     17 C13        -3.4920   -3.2914   -5.2932 C.ar      1 <0>        -0.0983
     18 C14        -2.6269   -3.9612   -6.1380 C.ar      1 <0>        -0.1195
     19 C15        -2.7605   -5.3243   -6.3250 C.ar      1 <0>        -0.1060
     20 C16        -3.7591   -6.0177   -5.6669 C.ar      1 <0>        -0.1205
     21 C17        -4.6216   -5.3485   -4.8188 C.ar      1 <0>        -0.1005
     22 N2         -5.9038   -1.9169    0.9303 N.pl3     1 <0>        -0.6922
     23 C18        -5.8992   -2.1947    2.2934 C.ar      1 <0>         0.2942
     24 C19        -5.0189   -3.1432    2.8060 C.ar      1 <0>        -0.1991
     25 C20        -5.0118   -3.4198    4.1544 C.ar      1 <0>        -0.0015
     26 C21        -5.8894   -2.7474    5.0087 C.ar      1 <0>        -0.2298
     27 C22        -6.7719   -1.7957    4.4913 C.ar      1 <0>        -0.0027
     28 C23        -6.7709   -1.5194    3.1428 C.ar      1 <0>        -0.1915
     29 C24        -5.8845   -3.0422    6.4557 C.cat     1 <0>         0.6033
     30 N3         -6.7221   -2.4001    7.2695 N.pl3     1 <0>        -0.7725
     31 N4         -5.0425   -3.9506    6.9478 N.pl3     1 <0>        -0.7732
     32 H1          1.0053    1.8021    0.0021 H         1 <0>         0.1066
     33 H2         -0.5445    1.7859   -0.8732 H         1 <0>         0.0586
     34 H3         -0.5275    1.7763    0.9067 H         1 <0>         0.0570
     35 H4         -2.3338    1.1787    0.0211 H         1 <0>         0.1407
     36 H5         -4.5102    0.0294    0.0345 H         1 <0>         0.1259
     37 H6         -2.5312   -3.7485    0.0167 H         1 <0>         0.1380
     38 H7          0.7471   -4.6369   -0.0298 H         1 <0>         0.1057
     39 H8         -0.7791   -4.4975    0.8754 H         1 <0>         0.0544
     40 H9         -0.7960   -4.4879   -0.9044 H         1 <0>         0.0568
     41 H10        -4.8584   -3.6513    0.3844 H         1 <0>         0.1200
     42 H11        -4.0273   -3.6669   -2.1791 H         1 <0>         0.4041
     43 H12        -6.3999   -3.7599   -3.7083 H         1 <0>         0.0822
     44 H13        -5.5628   -2.2299   -4.0642 H         1 <0>         0.0816
     45 H14        -3.3875   -2.2264   -5.1470 H         1 <0>         0.1234
     46 H15        -1.8467   -3.4196   -6.6521 H         1 <0>         0.1266
     47 H16        -2.0851   -5.8476   -6.9856 H         1 <0>         0.1265
     48 H17        -3.8638   -7.0826   -5.8134 H         1 <0>         0.1266
     49 H18        -5.3994   -5.8908   -4.3018 H         1 <0>         0.1238
     50 H19        -6.5141   -1.2532    0.5727 H         1 <0>         0.4224
     51 H20        -4.3411   -3.6630    2.1451 H         1 <0>         0.1419
     52 H21        -4.3288   -4.1562    4.5515 H         1 <0>         0.1344
     53 H22        -7.4516   -1.2747    5.1493 H         1 <0>         0.1359
     54 H23        -7.4497   -0.7807    2.7430 H         1 <0>         0.1463
     55 H24        -7.3350   -1.7390    6.9113 H         1 <0>         0.4417
     56 H25        -4.4328   -4.4179    6.3556 H         1 <0>         0.4411
     57 H26        -5.0393   -4.1443    7.8983 H         1 <0>         0.4299
     58 H27        -6.7189   -2.5938    8.2199 H         1 <0>         0.4299
@<TRIPOS>BOND
     1    1    2 1
     2    1   32 1
     3    1   33 1
     4    1   34 1
     5    2    3 1
     6    3    8 ar
     7    3    4 ar
     8    4    5 ar
     9    4   35 1
    10    5    6 ar
    11    5   36 1
    12    6    7 ar
    13    6   11 1
    14    7    8 ar
    15    7   37 1
    16    8    9 1
    17    9   10 1
    18   10   38 1
    19   10   39 1
    20   10   40 1
    21   11   12 1
    22   11   22 1
    23   11   41 1
    24   12   13 2
    25   12   14 am
    26   14   15 1
    27   14   42 1
    28   15   16 1
    29   15   43 1
    30   15   44 1
    31   16   21 ar
    32   16   17 ar
    33   17   18 ar
    34   17   45 1
    35   18   19 ar
    36   18   46 1
    37   19   20 ar
    38   19   47 1
    39   20   21 ar
    40   20   48 1
    41   21   49 1
    42   22   23 1
    43   22   50 1
    44   23   28 ar
    45   23   24 ar
    46   24   25 ar
    47   24   51 1
    48   25   26 ar
    49   25   52 1
    50   26   27 ar
    51   26   29 1
    52   27   28 ar
    53   27   53 1
    54   28   54 1
    55   29   30 2
    56   29   31 1
    57   30   55 1
    58   30   58 1
    59   31   56 1
    60   31   57 1
@<TRIPOS>MOLECULE
CHEMBL179983__1
   58    60     0     0     0
SMALL
USER_CHARGES

@<TRIPOS>ATOM
      1 C1         -0.0173    1.4248    0.0099 C.3       1 <0>         0.0234
      2 O1          0.0021   -0.0041    0.0020 O.3       1 <0>        -0.3018
      3 C2         -1.2011   -0.6379    0.0101 C.ar      1 <0>         0.1176
      4 C3         -2.3743    0.0994    0.0195 C.ar      1 <0>        -0.1701
      5 C4         -3.5965   -0.5465    0.0272 C.ar      1 <0>        -0.0858
      6 C5         -3.6519   -1.9279    0.0261 C.ar      1 <0>        -0.1201
      7 C6         -2.4852   -2.6694    0.0172 C.ar      1 <0>        -0.1638
      8 C7         -1.2569   -2.0283    0.0032 C.ar      1 <0>         0.1085
      9 O2         -0.1083   -2.7563   -0.0116 O.3       1 <0>        -0.3004
     10 C8         -0.2420   -4.1790   -0.0180 C.3       1 <0>         0.0241
     11 C9         -4.9869   -2.6268    0.0350 C.3       1 <0>         0.1737
     12 C10        -5.5362   -2.6428    1.4383 C.2       1 <0>         0.5158
     13 O3         -6.5996   -2.1118    1.6793 O.2       1 <0>        -0.5256
     14 N1         -4.8457   -3.2471    2.4254 N.am      1 <0>        -0.7114
     15 C11        -5.3796   -3.2626    3.7895 C.3       1 <0>         0.1623
     16 C12        -4.4231   -3.9949    4.6950 C.ar      1 <0>        -0.1186
     17 C13        -4.5474   -5.3602    4.8725 C.ar      1 <0>        -0.1005
     18 C14        -3.6701   -6.0319    5.7031 C.ar      1 <0>        -0.1205
     19 C15        -2.6682   -5.3385    6.3559 C.ar      1 <0>        -0.1060
     20 C16        -2.5433   -3.9733    6.1778 C.ar      1 <0>        -0.1195
     21 C17        -3.4180   -3.3023    5.3438 C.ar      1 <0>        -0.0983
     22 N2         -5.9167   -1.9150   -0.8453 N.pl3     1 <0>        -0.6921
     23 C18        -5.9320   -2.1897   -2.2088 C.ar      1 <0>         0.2944
     24 C19        -5.0673   -3.1453   -2.7346 C.ar      1 <0>        -0.1993
     25 C20        -5.0805   -3.4196   -4.0834 C.ar      1 <0>        -0.0014
     26 C21        -5.9630   -2.7376   -4.9249 C.ar      1 <0>        -0.2298
     27 C22        -6.8299   -1.7789   -4.3944 C.ar      1 <0>        -0.0026
     28 C23        -6.8160   -1.5125   -3.0440 C.ar      1 <0>        -0.1916
     29 C24        -5.9793   -3.0293   -6.3725 C.cat     1 <0>         0.6033
     30 N3         -6.8216   -2.3780   -7.1741 N.pl3     1 <0>        -0.7725
     31 N4         -5.1515   -3.9438   -6.8774 N.pl3     1 <0>        -0.7733
     32 H1          1.0053    1.8021    0.0021 H         1 <0>         0.1066
     33 H2         -0.5445    1.7859   -0.8732 H         1 <0>         0.0569
     34 H3         -0.5275    1.7763    0.9067 H         1 <0>         0.0586
     35 H4         -2.3338    1.1787    0.0211 H         1 <0>         0.1407
     36 H5         -4.5102    0.0294    0.0345 H         1 <0>         0.1259
     37 H6         -2.5312   -3.7485    0.0167 H         1 <0>         0.1380
     38 H7          0.7471   -4.6369   -0.0298 H         1 <0>         0.1057
     39 H8         -0.7791   -4.4975    0.8754 H         1 <0>         0.0568
     40 H9         -0.7960   -4.4879   -0.9044 H         1 <0>         0.0544
     41 H10        -4.8635   -3.6505   -0.3185 H         1 <0>         0.1200
     42 H11        -3.9951   -3.6718    2.2326 H         1 <0>         0.4042
     43 H12        -5.5030   -2.2390    4.1431 H         1 <0>         0.0815
     44 H13        -6.3452   -3.7682    3.7960 H         1 <0>         0.0822
     45 H14        -5.3302   -5.9020    4.3625 H         1 <0>         0.1237
     46 H15        -3.7676   -7.0985    5.8423 H         1 <0>         0.1266
     47 H16        -1.9831   -5.8631    7.0054 H         1 <0>         0.1265
     48 H17        -1.7607   -3.4315    6.6880 H         1 <0>         0.1267
     49 H18        -3.3182   -2.2364    5.2017 H         1 <0>         0.1234
     50 H19        -6.5217   -1.2520   -0.4773 H         1 <0>         0.4224
     51 H20        -4.3851   -3.6719   -2.0837 H         1 <0>         0.1418
     52 H21        -4.4091   -4.1609   -4.4908 H         1 <0>         0.1344
     53 H22        -7.5129   -1.2499   -5.0426 H         1 <0>         0.1359
     54 H23        -7.4889   -0.7747   -2.6326 H         1 <0>         0.1463
     55 H24        -7.4240   -1.7125   -6.8067 H         1 <0>         0.4417
     56 H25        -4.5384   -4.4178   -6.2939 H         1 <0>         0.4411
     57 H26        -5.1622   -4.1354   -7.8282 H         1 <0>         0.4299
     58 H27        -6.8323   -2.5696   -8.1250 H         1 <0>         0.4300
@<TRIPOS>BOND
     1    1    2 1
     2    1   32 1
     3    1   33 1
     4    1   34 1
     5    2    3 1
     6    3    8 ar
     7    3    4 ar
     8    4    5 ar
     9    4   35 1
    10    5    6 ar
    11    5   36 1
    12    6    7 ar
    13    6   11 1
    14    7    8 ar
    15    7   37 1
    16    8    9 1
    17    9   10 1
    18   10   38 1
    19   10   39 1
    20   10   40 1
    21   11   12 1
    22   11   22 1
    23   11   41 1
    24   12   13 2
    25   12   14 am
    26   14   15 1
    27   14   42 1
    28   15   16 1
    29   15   43 1
    30   15   44 1
    31   16   21 ar
    32   16   17 ar
    33   17   18 ar
    34   17   45 1
    35   18   19 ar
    36   18   46 1
    37   19   20 ar
    38   19   47 1
    39   20   21 ar
    40   20   48 1
    41   21   49 1
    42   22   23 1
    43   22   50 1
    44   23   28 ar
    45   23   24 ar
    46   24   25 ar
    47   24   51 1
    48   25   26 ar
    49   25   52 1
    50   26   27 ar
    51   26   29 1
    52   27   28 ar
    53   27   53 1
    54   28   54 1
    55   29   30 2
    56   29   31 1
    57   30   55 1
    58   30   58 1
    59   31   56 1
    60   31   57 1
@<TRIPOS>MOLECULE
CHEMBL205123
   77    79     0     0     0
SMALL
USER_CHARGES

@<TRIPOS>ATOM
      1 C1          0.2250    1.7414   -2.2911 C.3       1 <0>        -0.1480
      2 C2          0.2231    0.2161   -2.4106 C.3       1 <0>        -0.1062
      3 C3          1.3455   -0.3643   -1.5479 C.3       1 <0>        -0.1597
      4 C4         -1.1230   -0.3313   -1.9319 C.3       1 <0>         0.1203
      5 N1         -1.1698   -1.7781   -2.1572 N.am      1 <0>        -0.7349
      6 C5         -2.2674   -2.4790   -1.8101 C.2       1 <0>         0.5614
      7 O1         -3.2187   -1.9106   -1.3101 O.2       1 <0>        -0.5229
      8 C6         -2.3146   -3.9372   -2.0372 C.ar      1 <0>        -0.1650
      9 C7         -1.2166   -4.5924   -2.6078 C.ar      1 <0>        -0.0825
     10 C8         -1.2541   -5.9511   -2.8226 C.ar      1 <0>        -0.1534
     11 C9         -2.3822   -6.6841   -2.4742 C.ar      1 <0>         0.1364
     12 C10        -3.4900   -6.0372   -1.9004 C.ar      1 <0>        -0.1297
     13 C11        -3.4485   -4.6609   -1.6785 C.ar      1 <0>        -0.0027
     14 C12        -4.6870   -6.8099   -1.5299 C.2       1 <0>         0.5154
     15 O2         -5.6498   -6.2441   -1.0305 O.co2     1 <0>        -0.6733
     16 O3         -4.7188   -8.0177   -1.7215 O.co2     1 <0>        -0.6597
     17 O4         -2.4142   -8.0210   -2.6881 O.3       1 <0>        -0.1687
     18 C13        -1.2990   -8.7396   -2.3991 C.ar      1 <0>         0.3323
     19 C14        -1.2406  -10.0814   -2.7430 C.ar      1 <0>         0.0529
     20 C15        -0.0907  -10.8100   -2.4416 C.ar      1 <0>         0.2208
     21 C16         0.9608  -10.1544   -1.8021 C.ar      1 <0>         0.0331
     22 C17         0.8280   -8.8103   -1.4901 C.ar      1 <0>         0.3000
     23 N2         -0.2779   -8.1492   -1.7970 N.ar      1 <0>        -0.5392
     24 O5          1.8459   -8.1625   -0.8675 O.3       1 <0>        -0.2162
     25 C18         1.6500   -6.8681   -0.5027 C.ar      1 <0>         0.1086
     26 C19         0.3604   -6.3843   -0.3259 C.ar      1 <0>        -0.0786
     27 C20         0.1555   -5.0688    0.0455 C.ar      1 <0>        -0.0830
     28 C21         1.2317   -4.2274    0.2430 C.ar      1 <0>        -0.0769
     29 C22         2.5309   -4.7045    0.0677 C.ar      1 <0>        -0.1476
     30 C23         2.7367   -6.0334   -0.3019 C.ar      1 <0>        -0.0805
     31 C24         3.6870   -3.8051    0.2787 C.cat     1 <0>         0.6095
     32 N3          3.5660   -2.4998    0.0460 N.pl3     1 <0>        -0.7630
     33 N4          4.8480   -4.3012    0.7013 N.pl3     1 <0>        -0.7595
     34 F1          2.0940  -10.8205   -1.4904 F         1 <0>        -0.1066
     35 N5          0.0054  -12.1626   -2.7714 N.pl3     1 <0>        -0.6534
     36 C25         0.5477  -12.5626   -4.0722 C.3       1 <0>         0.1631
     37 C26        -0.2615  -11.8987   -5.1882 C.3       1 <0>        -0.1711
     38 C27         2.0099  -12.1234   -4.1720 C.3       1 <0>        -0.1650
     39 C28        -0.4361  -13.1825   -1.8169 C.3       1 <0>         0.1630
     40 C29        -1.4982  -14.0681   -2.4716 C.3       1 <0>        -0.1657
     41 C30         0.7588  -14.0424   -1.4003 C.3       1 <0>        -0.1622
     42 F2         -2.2845  -10.6753   -3.3616 F         1 <0>        -0.0911
     43 H1          1.1840    2.1314   -2.6321 H         1 <0>         0.0601
     44 H2         -0.5746    2.1550   -2.9057 H         1 <0>         0.0630
     45 H3          0.0669    2.0246   -1.2505 H         1 <0>         0.0597
     46 H4          0.3813   -0.0671   -3.4512 H         1 <0>         0.0796
     47 H5          1.3442   -1.4510   -1.6329 H         1 <0>         0.0469
     48 H6          2.3046    0.0256   -1.8888 H         1 <0>         0.0610
     49 H7          1.1874   -0.0812   -0.5072 H         1 <0>         0.0620
     50 H8         -1.2416   -0.1252   -0.8682 H         1 <0>         0.0701
     51 H9         -1.9287    0.1491   -2.4871 H         1 <0>         0.0717
     52 H10        -0.4108   -2.2316   -2.5562 H         1 <0>         0.3940
     53 H11        -0.3366   -4.0289   -2.8809 H         1 <0>         0.1182
     54 H12        -0.4037   -6.4496   -3.2638 H         1 <0>         0.1282
     55 H13        -4.2945   -4.1577   -1.2342 H         1 <0>         0.1537
     56 H14        -0.4854   -7.0381   -0.4795 H         1 <0>         0.1879
     57 H15        -0.8497   -4.6980    0.1812 H         1 <0>         0.1517
     58 H16         1.0681   -3.1999    0.5329 H         1 <0>         0.1381
     59 H17         3.7404   -6.4095   -0.4348 H         1 <0>         0.1462
     60 H18         2.7201   -2.1383   -0.2619 H         1 <0>         0.4425
     61 H19         4.9361   -5.2522    0.8708 H         1 <0>         0.4471
     62 H20         5.6057   -3.7116    0.8396 H         1 <0>         0.4313
     63 H21         0.4861  -13.6461   -4.1739 H         1 <0>         0.0936
     64 H22        -0.1274  -10.8180   -5.1406 H         1 <0>         0.0497
     65 H23         0.0837  -12.2655   -6.1548 H         1 <0>         0.0661
     66 H24        -1.3173  -12.1396   -5.0640 H         1 <0>         0.0690
     67 H25         2.5990  -12.6479   -3.4198 H         1 <0>         0.0616
     68 H26         2.3936  -12.3605   -5.1643 H         1 <0>         0.0637
     69 H27         2.0789  -11.0487   -4.0030 H         1 <0>         0.0498
     70 H28        -0.8593  -12.6977   -0.9371 H         1 <0>         0.0793
     71 H29        -1.0489  -14.6283   -3.2916 H         1 <0>         0.0581
     72 H30        -1.8977  -14.7628   -1.7328 H         1 <0>         0.0663
     73 H31        -2.3045  -13.4440   -2.8569 H         1 <0>         0.0659
     74 H32         1.4790  -13.4269   -0.8612 H         1 <0>         0.0577
     75 H33         0.4168  -14.8512   -0.7546 H         1 <0>         0.0649
     76 H34         1.2319  -14.4616   -2.2883 H         1 <0>         0.0588
     77 H35         4.3237   -1.9102    0.1843 H         1 <0>         0.4317
@<TRIPOS>BOND
     1    1    2 1
     2    1   43 1
     3    1   44 1
     4    1   45 1
     5    2    3 1
     6    2    4 1
     7    2   46 1
     8    3   47 1
     9    3   48 1
    10    3   49 1
    11    4    5 1
    12    4   50 1
    13    4   51 1
    14    5    6 am
    15    5   52 1
    16    6    7 2
    17    6    8 1
    18    8   13 ar
    19    8    9 ar
    20    9   10 ar
    21    9   53 1
    22   10   11 ar
    23   10   54 1
    24   11   12 ar
    25   11   17 1
    26   12   13 ar
    27   12   14 1
    28   13   55 1
    29   14   15 2
    30   14   16 1
    31   17   18 1
    32   18   23 ar
    33   18   19 ar
    34   19   20 ar
    35   19   42 1
    36   20   21 ar
    37   20   35 1
    38   21   22 ar
    39   21   34 1
    40   22   23 ar
    41   22   24 1
    42   24   25 1
    43   25   30 ar
    44   25   26 ar
    45   26   27 ar
    46   26   56 1
    47   27   28 ar
    48   27   57 1
    49   28   29 ar
    50   28   58 1
    51   29   30 ar
    52   29   31 1
    53   30   59 1
    54   31   32 2
    55   31   33 1
    56   32   60 1
    57   32   77 1
    58   33   61 1
    59   33   62 1
    60   35   36 1
    61   35   39 1
    62   36   37 1
    63   36   38 1
    64   36   63 1
    65   37   64 1
    66   37   65 1
    67   37   66 1
    68   38   67 1
    69   38   68 1
    70   38   69 1
    71   39   40 1
    72   39   41 1
    73   39   70 1
    74   40   71 1
    75   40   72 1
    76   40   73 1
    77   41   74 1
    78   41   75 1
    79   41   76 1
@<TRIPOS>MOLECULE
CHEMBL377280
   78    81     0     0     0
SMALL
USER_CHARGES

@<TRIPOS>ATOM
      1 C1         -2.6950    2.8063   -0.7538 C.3       1 <0>        -0.1620
      2 C2         -1.8621    1.5302   -0.8904 C.3       1 <0>         0.1646
      3 C3         -0.5650    1.6799   -0.0928 C.3       1 <0>        -0.1679
      4 N1         -2.6248    0.3914   -0.3730 N.pl3     1 <0>        -0.6535
      5 C4         -2.8497   -0.7232   -1.1820 C.ar      1 <0>         0.2202
      6 C5         -3.9751   -0.7949   -2.0022 C.ar      1 <0>         0.0376
      7 C6         -4.1641   -1.9183   -2.7921 C.ar      1 <0>         0.2934
      8 N2         -3.2916   -2.9146   -2.7736 N.ar      1 <0>        -0.5361
      9 C7         -2.2117   -2.8817   -2.0077 C.ar      1 <0>         0.3219
     10 C8         -1.9517   -1.7896   -1.1942 C.ar      1 <0>         0.0567
     11 F1         -0.8451   -1.7613   -0.4197 F         1 <0>        -0.0880
     12 O1         -1.3464   -3.9280   -2.0228 O.3       1 <0>        -0.1584
     13 C9         -1.5579   -4.9148   -2.9259 C.ar      1 <0>         0.1386
     14 C10        -2.2572   -4.6476   -4.0968 C.ar      1 <0>        -0.1829
     15 C11        -2.4743   -5.6466   -5.0179 C.ar      1 <0>        -0.0817
     16 C12        -1.9927   -6.9403   -4.7833 C.ar      1 <0>        -0.1714
     17 C13        -1.2910   -7.2211   -3.6141 C.ar      1 <0>         0.0026
     18 C14        -1.0652   -6.2082   -2.6823 C.ar      1 <0>        -0.1334
     19 C15        -0.3191   -6.4942   -1.4459 C.2       1 <0>         0.5158
     20 O2          0.1087   -7.6210   -1.2364 O.co2     1 <0>        -0.6737
     21 O3         -0.1269   -5.6050   -0.6279 O.co2     1 <0>        -0.6600
     22 C16        -2.2294   -8.0071   -5.7761 C.2       1 <0>         0.5632
     23 O4         -1.8113   -9.1305   -5.5726 O.2       1 <0>        -0.5215
     24 N3         -2.9090   -7.7357   -6.9079 N.am      1 <0>        -0.7301
     25 C17        -3.1440   -8.7943   -7.8929 C.3       1 <0>         0.1390
     26 C18        -1.9606   -8.8700   -8.8798 C.3       1 <0>        -0.1383
     27 C19        -2.6225   -9.1920  -10.2426 C.3       1 <0>        -0.1258
     28 C20        -3.9262   -8.3569  -10.1952 C.3       1 <0>        -0.1260
     29 C21        -4.3937   -8.4681   -8.7293 C.3       1 <0>        -0.1261
     30 O5         -5.2568   -1.9983   -3.5940 O.3       1 <0>        -0.2150
     31 C22        -5.4850   -3.1684   -4.2464 C.ar      1 <0>         0.1055
     32 C23        -4.9086   -4.3444   -3.7847 C.ar      1 <0>        -0.0822
     33 C24        -5.1370   -5.5372   -4.4448 C.ar      1 <0>        -0.0824
     34 C25        -5.9397   -5.5669   -5.5673 C.ar      1 <0>        -0.0824
     35 C26        -6.5234   -4.3905   -6.0382 C.ar      1 <0>        -0.1459
     36 C27        -6.2969   -3.1886   -5.3682 C.ar      1 <0>        -0.0800
     37 C28        -7.3845   -4.4189   -7.2413 C.cat     1 <0>         0.6092
     38 N4         -7.1647   -5.3204   -8.1962 N.pl3     1 <0>        -0.7604
     39 N5         -8.3791   -3.5430   -7.3690 N.pl3     1 <0>        -0.7599
     40 F2         -4.8699    0.2170   -2.0264 F         1 <0>        -0.1057
     41 C29        -3.1514    0.4228    0.9937 C.3       1 <0>         0.1629
     42 C30        -4.6808    0.4177    0.9512 C.3       1 <0>        -0.1664
     43 C31        -2.6583   -0.8071    1.7586 C.3       1 <0>        -0.1707
     44 H1         -2.0971    3.6649   -1.0594 H         1 <0>         0.0654
     45 H2         -3.5778    2.7337   -1.3891 H         1 <0>         0.0584
     46 H3         -3.0036    2.9294    0.2843 H         1 <0>         0.0609
     47 H4         -1.6252    1.3616   -1.9409 H         1 <0>         0.0765
     48 H5         -0.7986    1.7614    0.9687 H         1 <0>         0.0606
     49 H6          0.0670    0.8077   -0.2599 H         1 <0>         0.0629
     50 H7         -0.0394    2.5774   -0.4191 H         1 <0>         0.0646
     51 H8         -2.6319   -3.6523   -4.2843 H         1 <0>         0.1547
     52 H9         -3.0189   -5.4320   -5.9255 H         1 <0>         0.1161
     53 H10        -0.9192   -8.2184   -3.4314 H         1 <0>         0.1538
     54 H11        -3.2426   -6.8395   -7.0702 H         1 <0>         0.3907
     55 H12        -3.2720   -9.7519   -7.3882 H         1 <0>         0.0960
     56 H13        -1.4400   -7.9134   -8.9251 H         1 <0>         0.0710
     57 H14        -1.2739   -9.6659   -8.5916 H         1 <0>         0.0752
     58 H15        -1.9866   -8.8690  -11.0668 H         1 <0>         0.0702
     59 H16        -2.8477  -10.2556  -10.3209 H         1 <0>         0.0715
     60 H17        -3.7229   -7.3175  -10.4530 H         1 <0>         0.0651
     61 H18        -4.6738   -8.7784  -10.8671 H         1 <0>         0.0684
     62 H19        -5.1278   -9.2678   -8.6312 H         1 <0>         0.0776
     63 H20        -4.8254   -7.5222   -8.4023 H         1 <0>         0.0543
     64 H21        -4.2793   -4.3270   -2.9071 H         1 <0>         0.1897
     65 H22        -4.6858   -6.4487   -4.0814 H         1 <0>         0.1536
     66 H23        -6.1156   -6.5005   -6.0811 H         1 <0>         0.1397
     67 H24        -6.7494   -2.2755   -5.7258 H         1 <0>         0.1464
     68 H25        -7.7292   -5.3390   -8.9848 H         1 <0>         0.4321
     69 H26        -8.5393   -2.8863   -6.6733 H         1 <0>         0.4469
     70 H27        -8.9436   -3.5617   -8.1576 H         1 <0>         0.4314
     71 H28        -2.8049    1.3260    1.4960 H         1 <0>         0.0937
     72 H29        -5.0727    0.5320    1.9619 H         1 <0>         0.0650
     73 H30        -5.0298    1.2431    0.3307 H         1 <0>         0.0626
     74 H31        -5.0294   -0.5256    0.5308 H         1 <0>         0.0499
     75 H32        -1.5741   -0.7610    1.8607 H         1 <0>         0.0675
     76 H33        -3.1159   -0.8274    2.7477 H         1 <0>         0.0674
     77 H34        -2.9338   -1.7092    1.2123 H         1 <0>         0.0523
     78 H35        -6.4401   -5.9585   -8.1032 H         1 <0>         0.4443
@<TRIPOS>BOND
     1    1    2 1
     2    1   44 1
     3    1   45 1
     4    1   46 1
     5    2    3 1
     6    2    4 1
     7    2   47 1
     8    3   48 1
     9    3   49 1
    10    3   50 1
    11    4    5 1
    12    4   41 1
    13    5   10 ar
    14    5    6 ar
    15    6    7 ar
    16    6   40 1
    17    7    8 ar
    18    7   30 1
    19    8    9 ar
    20    9   10 ar
    21    9   12 1
    22   10   11 1
    23   12   13 1
    24   13   18 ar
    25   13   14 ar
    26   14   15 ar
    27   14   51 1
    28   15   16 ar
    29   15   52 1
    30   16   17 ar
    31   16   22 1
    32   17   18 ar
    33   17   53 1
    34   18   19 1
    35   19   20 2
    36   19   21 1
    37   22   23 2
    38   22   24 am
    39   24   25 1
    40   24   54 1
    41   25   29 1
    42   25   26 1
    43   25   55 1
    44   26   27 1
    45   26   56 1
    46   26   57 1
    47   27   28 1
    48   27   58 1
    49   27   59 1
    50   28   29 1
    51   28   60 1
    52   28   61 1
    53   29   62 1
    54   29   63 1
    55   30   31 1
    56   31   36 ar
    57   31   32 ar
    58   32   33 ar
    59   32   64 1
    60   33   34 ar
    61   33   65 1
    62   34   35 ar
    63   34   66 1
    64   35   36 ar
    65   35   37 1
    66   36   67 1
    67   37   38 2
    68   37   39 1
    69   38   68 1
    70   38   78 1
    71   39   69 1
    72   39   70 1
    73   41   42 1
    74   41   43 1
    75   41   71 1
    76   42   72 1
    77   42   73 1
    78   42   74 1
    79   43   75 1
    80   43   76 1
    81   43   77 1
@<TRIPOS>MOLECULE
CHEMBL208951
   60    64     0     0     0
SMALL
USER_CHARGES

@<TRIPOS>ATOM
      1 C1         -0.0490    1.3325    0.0665 C.ar      1 <0>        -0.1096
      2 C2          1.1361    2.0427    0.0224 C.ar      1 <0>        -0.1307
      3 C3          2.3439    1.3710   -0.0047 C.ar      1 <0>        -0.0960
      4 C4          2.3667   -0.0111    0.0128 C.ar      1 <0>        -0.1239
      5 C5          1.1816   -0.7214    0.0578 C.ar      1 <0>        -0.0786
      6 C6         -0.0263   -0.0496    0.0835 C.ar      1 <0>        -0.1298
      7 C7          3.6834   -0.7434   -0.0178 C.3       1 <0>         0.2009
      8 N1          4.1522   -0.9626    1.3528 N.am      1 <0>        -0.4820
      9 C8          3.5748   -1.9089    2.1193 C.2       1 <0>         0.6973
     10 O1          2.6080   -2.5196    1.7060 O.2       1 <0>        -0.5593
     11 N2          4.0689   -2.1783    3.3439 N.am      1 <0>        -0.7456
     12 C9          3.5122   -3.2805    4.1322 C.3       1 <0>         0.1806
     13 C10         4.2346   -3.3692    5.4518 C.ar      1 <0>        -0.1055
     14 C11         5.3663   -4.1565    5.5679 C.ar      1 <0>        -0.0888
     15 C12         6.0343   -4.2426    6.7759 C.ar      1 <0>        -0.1155
     16 C13         5.5746   -3.5425    7.8731 C.ar      1 <0>        -0.0887
     17 C14         4.4353   -2.7479    7.7620 C.ar      1 <0>        -0.0515
     18 C15         3.7694   -2.6605    6.5406 C.ar      1 <0>        -0.0810
     19 C16         3.9365   -1.9932    8.9376 C.ar      1 <0>        -0.0614
     20 C17         3.6405   -0.6362    8.8223 C.ar      1 <0>        -0.0662
     21 C18         3.1754    0.0694    9.9149 C.ar      1 <0>        -0.1169
     22 C19         2.9996   -0.5615   11.1307 C.ar      1 <0>        -0.0825
     23 C20         3.2908   -1.9194   11.2643 C.ar      1 <0>        -0.0926
     24 C21         3.7568   -2.6418   10.1607 C.ar      1 <0>         0.1561
     25 O2          4.0379   -3.9647   10.2798 O.3       1 <0>        -0.4818
     26 C22         3.1027   -2.5936   12.5664 C.2       1 <0>         0.1591
     27 C23         2.6060   -3.8450   12.7349 C.2       1 <0>        -0.1265
     28 C24         2.5940   -4.1071   14.1718 C.ar      1 <0>        -0.1367
     29 C25         2.2092   -5.1845   14.9695 C.ar      1 <0>         0.2059
     30 N3          2.3248   -5.1117   16.2793 N.ar      1 <0>        -0.4601
     31 H1          3.7836   -1.1660   13.9340 H         1 <0>         0.4367
     32 C26         2.8007   -4.0374   16.8871 C.ar      1 <0>         0.0983
     33 C27         3.2044   -2.9277   16.1773 C.ar      1 <0>        -0.1122
     34 C28         3.1062   -2.9447   14.7880 C.ar      1 <0>         0.1765
     35 N4          3.4103   -2.0502   13.7936 N.pl3     1 <0>        -0.5535
     36 O3          5.2120   -0.1802    1.8722 O.3       1 <0>        -0.3288
     37 H2         -0.9925    1.8574    0.0922 H         1 <0>         0.1214
     38 H3          1.1183    3.1225    0.0087 H         1 <0>         0.1220
     39 H4          3.2698    1.9259   -0.0399 H         1 <0>         0.1211
     40 H5          1.1994   -1.8011    0.0711 H         1 <0>         0.1346
     41 H6         -0.9521   -0.6045    0.1183 H         1 <0>         0.1222
     42 H7          3.5532   -1.7045   -0.5153 H         1 <0>         0.0997
     43 H8          4.4172   -0.1490   -0.5621 H         1 <0>         0.1019
     44 H9          4.7932   -1.6424    3.7033 H         1 <0>         0.3916
     45 H10         2.4519   -3.1008    4.3098 H         1 <0>         0.0802
     46 H11         3.6359   -4.2160    3.5868 H         1 <0>         0.0812
     47 H12         5.7293   -4.7062    4.7121 H         1 <0>         0.1296
     48 H13         6.9170   -4.8590    6.8609 H         1 <0>         0.1304
     49 H14         6.0967   -3.6107    8.8160 H         1 <0>         0.1182
     50 H15         2.8884   -2.0427    6.4478 H         1 <0>         0.1274
     51 H16         3.7756   -0.1344    7.8755 H         1 <0>         0.1390
     52 H17         2.9482    1.1207    9.8180 H         1 <0>         0.1404
     53 H18         2.6362   -0.0024   11.9802 H         1 <0>         0.1299
     54 H19         4.9502   -4.1510   10.5409 H         1 <0>         0.3933
     55 H20         2.2812   -4.5184   11.9555 H         1 <0>         0.1829
     56 H21         1.8153   -6.0801   14.5121 H         1 <0>         0.2114
     57 H22         2.8741   -4.0299   17.9646 H         1 <0>         0.2078
     58 H23         3.5902   -2.0588   16.6897 H         1 <0>         0.1787
     59 H24         5.5024   -0.4478    2.7549 H         1 <0>         0.3773
     60 H25         2.0514   -5.8715   16.8167 H         1 <0>         0.4521
@<TRIPOS>BOND
     1    1    6 ar
     2    1    2 ar
     3    1   37 1
     4    2    3 ar
     5    2   38 1
     6    3    4 ar
     7    3   39 1
     8    4    5 ar
     9    4    7 1
    10    5    6 ar
    11    5   40 1
    12    6   41 1
    13    7    8 1
    14    7   42 1
    15    7   43 1
    16    8    9 am
    17    8   36 1
    18    9   10 2
    19    9   11 am
    20   11   12 1
    21   11   44 1
    22   12   13 1
    23   12   45 1
    24   12   46 1
    25   13   18 ar
    26   13   14 ar
    27   14   15 ar
    28   14   47 1
    29   15   16 ar
    30   15   48 1
    31   16   17 ar
    32   16   49 1
    33   17   18 ar
    34   17   19 1
    35   18   50 1
    36   19   24 ar
    37   19   20 ar
    38   20   21 ar
    39   20   51 1
    40   21   22 ar
    41   21   52 1
    42   22   23 ar
    43   22   53 1
    44   23   24 ar
    45   23   26 1
    46   24   25 1
    47   25   54 1
    48   26   35 1
    49   26   27 2
    50   27   28 1
    51   27   55 1
    52   28   29 ar
    53   28   34 ar
    54   29   30 ar
    55   29   56 1
    56   30   32 ar
    57   30   60 1
    58   31   35 1
    59   32   33 ar
    60   32   57 1
    61   33   34 ar
    62   33   58 1
    63   34   35 1
    64   36   59 1
@<TRIPOS>MOLECULE
CHEMBL378108
   58    62     0     0     0
SMALL
USER_CHARGES

@<TRIPOS>ATOM
      1 C1         -0.0167    1.3781    0.0096 C.ar      1 <0>        -0.1115
      2 C2          1.1709    2.0855    0.0021 C.ar      1 <0>        -0.1148
      3 C3          2.3773    1.4107   -0.0130 C.ar      1 <0>        -0.1094
      4 C4          2.3960    0.0285   -0.0201 C.ar      1 <0>        -0.1239
      5 C5          1.2084   -0.6789   -0.0117 C.ar      1 <0>        -0.1042
      6 C6          0.0021   -0.0041    0.0020 C.ar      1 <0>        -0.1116
      7 C7          3.7112   -0.7071   -0.0376 C.3       1 <0>         0.1378
      8 C8          4.0743   -1.0533   -1.4586 C.2       1 <0>         0.4917
      9 O1          4.1314   -2.2145   -1.8042 O.2       1 <0>        -0.5240
     10 N1          4.3355   -0.0727   -2.3454 N.am      1 <0>        -0.7214
     11 C9          4.6885   -0.4092   -3.7269 C.3       1 <0>         0.1585
     12 C10         4.9300    0.8576   -4.5065 C.ar      1 <0>        -0.1031
     13 C11         3.8803    1.4747   -5.1634 C.ar      1 <0>        -0.0891
     14 C12         4.0946    2.6375   -5.8809 C.ar      1 <0>        -0.1149
     15 C13         5.3584    3.1889   -5.9451 C.ar      1 <0>        -0.0897
     16 C14         6.4193    2.5717   -5.2855 C.ar      1 <0>        -0.0513
     17 C15         6.1964    1.4030   -4.5593 C.ar      1 <0>        -0.0827
     18 C16         7.7797    3.1594   -5.3508 C.ar      1 <0>        -0.0610
     19 C17         8.5130    3.3552   -4.1819 C.ar      1 <0>        -0.0663
     20 C18         9.7802    3.9019   -4.2394 C.ar      1 <0>        -0.1169
     21 C19        10.3323    4.2598   -5.4535 C.ar      1 <0>        -0.0828
     22 C20         9.6126    4.0709   -6.6337 C.ar      1 <0>        -0.0926
     23 C21         8.3310    3.5125   -6.5839 C.ar      1 <0>         0.1559
     24 O2          7.6250    3.3202   -7.7276 O.3       1 <0>        -0.4819
     25 C22        10.2044    4.4548   -7.9328 C.2       1 <0>         0.1592
     26 C23        10.0881    3.7477   -9.0850 C.2       1 <0>        -0.1265
     27 C24        10.8210    4.4847  -10.1112 C.ar      1 <0>        -0.1366
     28 C25        11.0735    4.2880  -11.4687 C.ar      1 <0>         0.2058
     29 N2         11.7933    5.1625  -12.1407 N.ar      1 <0>        -0.4601
     30 H1         11.1720    6.2551   -7.4912 H         1 <0>         0.4367
     31 C26        12.2997    6.2447  -11.5729 C.ar      1 <0>         0.0984
     32 C27        12.1001    6.5178  -10.2373 C.ar      1 <0>        -0.1122
     33 C28        11.3467    5.6295   -9.4737 C.ar      1 <0>         0.1765
     34 N3         10.9532    5.5878   -8.1603 N.pl3     1 <0>        -0.5535
     35 O3          3.5962   -1.9067    0.7305 O.3       1 <0>        -0.5269
     36 H2         -0.9591    1.9053    0.0259 H         1 <0>         0.1263
     37 H3          1.1563    3.1654    0.0076 H         1 <0>         0.1267
     38 H4          3.3051    1.9634   -0.0196 H         1 <0>         0.1241
     39 H5          1.2231   -1.7588   -0.0176 H         1 <0>         0.1233
     40 H6         -0.9258   -0.5567    0.0082 H         1 <0>         0.1278
     41 H7          4.4875   -0.0738    0.3918 H         1 <0>         0.1328
     42 H8          4.2899    0.8560   -2.0690 H         1 <0>         0.4022
     43 H9          5.5930   -1.0175   -3.7329 H         1 <0>         0.0799
     44 H10         3.8720   -0.9677   -4.1847 H         1 <0>         0.0805
     45 H11         2.8900    1.0465   -5.1161 H         1 <0>         0.1284
     46 H12         3.2717    3.1148   -6.3920 H         1 <0>         0.1299
     47 H13         5.5247    4.0968   -6.5059 H         1 <0>         0.1180
     48 H14         7.0142    0.9228   -4.0425 H         1 <0>         0.1274
     49 H15         8.0889    3.0790   -3.2279 H         1 <0>         0.1394
     50 H16        10.3425    4.0507   -3.3293 H         1 <0>         0.1405
     51 H17        11.3235    4.6872   -5.4895 H         1 <0>         0.1298
     52 H18         7.0749    4.0738   -7.9817 H         1 <0>         0.3932
     53 H19         9.5556    2.8176   -9.2178 H         1 <0>         0.1828
     54 H20        10.6783    3.4167  -11.9697 H         1 <0>         0.2114
     55 H21        12.8834    6.9297  -12.1700 H         1 <0>         0.2078
     56 H22        12.5212    7.4060   -9.7898 H         1 <0>         0.1787
     57 H23         2.9224   -2.5191    0.4049 H         1 <0>         0.3852
     58 H24        11.9580    5.0076  -13.0840 H         1 <0>         0.4521
@<TRIPOS>BOND
     1    1    6 ar
     2    1    2 ar
     3    1   36 1
     4    2    3 ar
     5    2   37 1
     6    3    4 ar
     7    3   38 1
     8    4    5 ar
     9    4    7 1
    10    5    6 ar
    11    5   39 1
    12    6   40 1
    13    7    8 1
    14    7   35 1
    15    7   41 1
    16    8    9 2
    17    8   10 am
    18   10   11 1
    19   10   42 1
    20   11   12 1
    21   11   43 1
    22   11   44 1
    23   12   17 ar
    24   12   13 ar
    25   13   14 ar
    26   13   45 1
    27   14   15 ar
    28   14   46 1
    29   15   16 ar
    30   15   47 1
    31   16   17 ar
    32   16   18 1
    33   17   48 1
    34   18   23 ar
    35   18   19 ar
    36   19   20 ar
    37   19   49 1
    38   20   21 ar
    39   20   50 1
    40   21   22 ar
    41   21   51 1
    42   22   23 ar
    43   22   25 1
    44   23   24 1
    45   24   52 1
    46   25   34 1
    47   25   26 2
    48   26   27 1
    49   26   53 1
    50   27   28 ar
    51   27   33 ar
    52   28   29 ar
    53   28   54 1
    54   29   31 ar
    55   29   58 1
    56   30   34 1
    57   31   32 ar
    58   31   55 1
    59   32   33 ar
    60   32   56 1
    61   33   34 1
    62   35   57 1
@<TRIPOS>MOLECULE
CHEMBL378108__1
   58    62     0     0     0
SMALL
USER_CHARGES

@<TRIPOS>ATOM
      1 C1         -0.0167    1.3781    0.0096 C.ar      1 <0>        -0.1123
      2 C2          1.1709    2.0855    0.0021 C.ar      1 <0>        -0.1157
      3 C3          2.3773    1.4107   -0.0130 C.ar      1 <0>        -0.1077
      4 C4          2.3960    0.0285   -0.0201 C.ar      1 <0>        -0.1224
      5 C5          1.2084   -0.6789   -0.0117 C.ar      1 <0>        -0.1044
      6 C6          0.0021   -0.0041    0.0020 C.ar      1 <0>        -0.1126
      7 C7          3.7112   -0.7071   -0.0376 C.3       1 <0>         0.1368
      8 C8          4.0438   -1.1746    1.3559 C.2       1 <0>         0.4917
      9 O1          4.0945   -2.3613    1.6015 O.2       1 <0>        -0.5240
     10 N1          4.2849   -0.2741    2.3293 N.am      1 <0>        -0.7212
     11 C9          4.6082   -0.7286    3.6839 C.3       1 <0>         0.1586
     12 C10         4.8316    0.4662    4.5748 C.ar      1 <0>        -0.1032
     13 C11         6.0983    1.0087    4.6975 C.ar      1 <0>        -0.0901
     14 C12         6.3106    2.1052    5.5132 C.ar      1 <0>        -0.1150
     15 C13         5.2583    2.6645    6.2099 C.ar      1 <0>        -0.0898
     16 C14         3.9803    2.1222    6.0900 C.ar      1 <0>        -0.0513
     17 C15         3.7712    1.0206    5.2621 C.ar      1 <0>        -0.0815
     18 C16         2.8455    2.7188    6.8361 C.ar      1 <0>        -0.0608
     19 C17         1.6590    3.0277    6.1733 C.ar      1 <0>        -0.0660
     20 C18         0.6002    3.5829    6.8653 C.ar      1 <0>        -0.1170
     21 C19         0.7066    3.8375    8.2184 C.ar      1 <0>        -0.0828
     22 C20         1.8868    3.5346    8.8980 C.ar      1 <0>        -0.0926
     23 C21         2.9613    2.9669    8.2051 C.ar      1 <0>         0.1559
     24 O2          4.1119    2.6641    8.8590 O.3       1 <0>        -0.4819
     25 C22         1.9997    3.8081   10.3464 C.2       1 <0>         0.1592
     26 C23         2.6080    2.9992   11.2502 C.2       1 <0>        -0.1265
     27 C24         2.4868    3.6504   12.5520 C.ar      1 <0>        -0.1367
     28 C25         2.8947    3.3362   13.8481 C.ar      1 <0>         0.2058
     29 N2          2.6253    4.1559   14.8430 N.ar      1 <0>        -0.4601
     30 H1          1.0362    5.6527   10.5498 H         1 <0>         0.4367
     31 C26         1.9696    5.2909   14.6643 C.ar      1 <0>         0.0984
     32 C27         1.5296    5.6800   13.4181 C.ar      1 <0>        -0.1122
     33 C28         1.7846    4.8543   12.3258 C.ar      1 <0>         0.1765
     34 N3          1.5088    4.9254   10.9840 N.pl3     1 <0>        -0.5534
     35 O3          3.6140   -1.8361   -0.9083 O.3       1 <0>        -0.5260
     36 H2         -0.9591    1.9053    0.0259 H         1 <0>         0.1254
     37 H3          1.1563    3.1654    0.0076 H         1 <0>         0.1264
     38 H4          3.3051    1.9634   -0.0196 H         1 <0>         0.1258
     39 H5          1.2231   -1.7588   -0.0176 H         1 <0>         0.1229
     40 H6         -0.9258   -0.5567    0.0082 H         1 <0>         0.1271
     41 H7          4.4960   -0.0399   -0.3940 H         1 <0>         0.1333
     42 H8          4.2444    0.6749    2.1329 H         1 <0>         0.4025
     43 H9          3.7826   -1.3236    4.0743 H         1 <0>         0.0786
     44 H10         5.5129   -1.3360    3.6572 H         1 <0>         0.0817
     45 H11         6.9246    0.5741    4.1546 H         1 <0>         0.1294
     46 H12         7.3016    2.5245    5.6056 H         1 <0>         0.1303
     47 H13         5.4252    3.5205    6.8469 H         1 <0>         0.1181
     48 H14         2.7819    0.5989    5.1621 H         1 <0>         0.1264
     49 H15         1.5672    2.8327    5.1151 H         1 <0>         0.1390
     50 H16        -0.3160    3.8196    6.3449 H         1 <0>         0.1401
     51 H17        -0.1258    4.2724    8.7517 H         1 <0>         0.1297
     52 H18         4.7563    3.3849    8.8755 H         1 <0>         0.3933
     53 H19         3.0894    2.0543   11.0460 H         1 <0>         0.1828
     54 H20         3.4323    2.4186   14.0363 H         1 <0>         0.2114
     55 H21         1.7744    5.9269   15.5151 H         1 <0>         0.2078
     56 H22         0.9953    6.6099   13.2903 H         1 <0>         0.1787
     57 H23         2.9338   -2.4736   -0.6512 H         1 <0>         0.3847
     58 H24         2.9172    3.9193   15.7372 H         1 <0>         0.4521
@<TRIPOS>BOND
     1    1    6 ar
     2    1    2 ar
     3    1   36 1
     4    2    3 ar
     5    2   37 1
     6    3    4 ar
     7    3   38 1
     8    4    5 ar
     9    4    7 1
    10    5    6 ar
    11    5   39 1
    12    6   40 1
    13    7    8 1
    14    7   35 1
    15    7   41 1
    16    8    9 2
    17    8   10 am
    18   10   11 1
    19   10   42 1
    20   11   12 1
    21   11   43 1
    22   11   44 1
    23   12   17 ar
    24   12   13 ar
    25   13   14 ar
    26   13   45 1
    27   14   15 ar
    28   14   46 1
    29   15   16 ar
    30   15   47 1
    31   16   17 ar
    32   16   18 1
    33   17   48 1
    34   18   23 ar
    35   18   19 ar
    36   19   20 ar
    37   19   49 1
    38   20   21 ar
    39   20   50 1
    40   21   22 ar
    41   21   51 1
    42   22   23 ar
    43   22   25 1
    44   23   24 1
    45   24   52 1
    46   25   34 1
    47   25   26 2
    48   26   27 1
    49   26   53 1
    50   27   28 ar
    51   27   33 ar
    52   28   29 ar
    53   28   54 1
    54   29   31 ar
    55   29   58 1
    56   30   34 1
    57   31   32 ar
    58   31   55 1
    59   32   33 ar
    60   32   56 1
    61   33   34 1
    62   35   57 1
@<TRIPOS>MOLECULE
CHEMBL130346
   65    68     0     0     0
SMALL
USER_CHARGES

@<TRIPOS>ATOM
      1 C1         -0.0123    1.3842    0.0946 C.ar      1 <0>        -0.1017
      2 C2          0.2091    0.4184   -0.8713 C.ar      1 <0>        -0.1205
      3 C3          1.4112   -0.2566   -0.9135 C.ar      1 <0>        -0.1050
      4 C4          2.4063    0.0368    0.0216 C.ar      1 <0>        -0.0596
      5 C5          2.1760    1.0129    0.9938 C.ar      1 <0>        -0.0775
      6 C6          0.9691    1.6799    1.0243 C.ar      1 <0>        -0.1148
      7 C7          3.6956   -0.6819   -0.0169 C.2       1 <0>         0.0867
      8 C8          4.8699    0.0266   -0.1232 C.2       1 <0>         0.1277
      9 N1          6.0483   -0.5878   -0.1602 N.2       1 <0>        -0.4968
     10 C9          6.1294   -1.9009   -0.0961 C.2       1 <0>         0.3773
     11 C10         4.9030   -2.6954    0.0177 C.2       1 <0>         0.4996
     12 O1          4.9539   -3.9123    0.0786 O.2       1 <0>        -0.5188
     13 N2          3.7149   -2.0526    0.0591 N.am      1 <0>        -0.4563
     14 C11         2.4652   -2.8079    0.1779 C.3       1 <0>         0.0798
     15 C12         2.0276   -3.2729   -1.1872 C.2       1 <0>         0.5075
     16 O2          2.6941   -3.0003   -2.1631 O.2       1 <0>        -0.5079
     17 N3          0.8957   -3.9917   -1.3235 N.am      1 <0>        -0.7268
     18 C13         0.4704   -4.4438   -2.6505 C.3       1 <0>         0.1475
     19 C14        -0.8152   -5.2207   -2.5283 C.ar      1 <0>        -0.0383
     20 C15        -0.7766   -6.5882   -2.3224 C.ar      1 <0>        -0.0947
     21 C16        -1.9500   -7.3052   -2.2101 C.ar      1 <0>        -0.0573
     22 C17        -3.1772   -6.6482   -2.3043 C.ar      1 <0>        -0.1497
     23 C18        -3.2093   -5.2689   -2.5116 C.ar      1 <0>        -0.0577
     24 C19        -2.0288   -4.5625   -2.6170 C.ar      1 <0>        -0.0948
     25 C20        -4.4395   -7.4112   -2.1854 C.cat     1 <0>         0.5999
     26 N4         -5.6091   -6.7814   -2.2757 N.pl3     1 <0>        -0.7604
     27 N5         -4.4056   -8.7275   -1.9880 N.pl3     1 <0>        -0.7602
     28 N6          7.3673   -2.5278   -0.1364 N.pl3     1 <0>        -0.6785
     29 C21         8.5898   -1.7285   -0.2508 C.3       1 <0>         0.1349
     30 C22         9.8057   -2.6569   -0.2740 C.3       1 <0>        -0.0984
     31 C23        11.0632   -1.8347   -0.3916 C.ar      1 <0>        -0.0755
     32 C24        11.6237   -1.6024   -1.6337 C.ar      1 <0>        -0.1007
     33 C25        12.7770   -0.8483   -1.7417 C.ar      1 <0>        -0.1117
     34 C26        13.3708   -0.3259   -0.6076 C.ar      1 <0>        -0.1055
     35 C27        12.8114   -0.5574    0.6347 C.ar      1 <0>        -0.1076
     36 C28        11.6537   -1.3075    0.7429 C.ar      1 <0>        -0.0307
     37 Cl1        10.9467   -1.5932    2.3025 Cl        1 <0>        -0.0650
     38 Cl2         4.8118    1.7593   -0.2113 Cl        1 <0>        -0.0034
     39 H1         -0.9537    1.9128    0.1203 H         1 <0>         0.1271
     40 H2         -0.5614    0.1923   -1.5936 H         1 <0>         0.1243
     41 H3          1.5826   -1.0104   -1.6677 H         1 <0>         0.1236
     42 H4          2.9409    1.2444    1.7202 H         1 <0>         0.1308
     43 H5          0.7896    2.4349    1.7755 H         1 <0>         0.1316
     44 H6          2.6229   -3.6723    0.8229 H         1 <0>         0.1313
     45 H7          1.6941   -2.1691    0.6085 H         1 <0>         0.1313
     46 H8          0.3627   -4.2097   -0.5429 H         1 <0>         0.4048
     47 H9          0.3126   -3.5794   -3.2955 H         1 <0>         0.0916
     48 H10         1.2414   -5.0826   -3.0811 H         1 <0>         0.0916
     49 H11         0.1740   -7.0956   -2.2496 H         1 <0>         0.1517
     50 H12        -1.9186   -8.3728   -2.0501 H         1 <0>         0.1410
     51 H13        -4.1561   -4.7547   -2.5857 H         1 <0>         0.1410
     52 H14        -2.0523   -3.4941   -2.7734 H         1 <0>         0.1516
     53 H15        -5.6337   -5.8225   -2.4195 H         1 <0>         0.4445
     54 H16        -3.5535   -9.1863   -1.9222 H         1 <0>         0.4447
     55 H17        -5.2331   -9.2277   -1.9100 H         1 <0>         0.4346
     56 H18         7.4229   -3.4950   -0.0890 H         1 <0>         0.4203
     57 H19         8.5589   -1.1471   -1.1722 H         1 <0>         0.0767
     58 H20         8.6639   -1.0540    0.6022 H         1 <0>         0.0788
     59 H21         9.8366   -3.2383    0.6475 H         1 <0>         0.0880
     60 H22         9.7316   -3.3314   -1.1270 H         1 <0>         0.0861
     61 H23        11.1605   -2.0105   -2.5198 H         1 <0>         0.1327
     62 H24        13.2148   -0.6674   -2.7123 H         1 <0>         0.1313
     63 H25        14.2722    0.2629   -0.6926 H         1 <0>         0.1340
     64 H26        13.2755   -0.1495    1.5205 H         1 <0>         0.1353
     65 H27        -6.4365   -7.2816   -2.1977 H         1 <0>         0.4346
@<TRIPOS>BOND
     1    1    6 ar
     2    1    2 ar
     3    1   39 1
     4    2    3 ar
     5    2   40 1
     6    3    4 ar
     7    3   41 1
     8    4    5 ar
     9    4    7 1
    10    5    6 ar
    11    5   42 1
    12    6   43 1
    13    7   13 1
    14    7    8 2
    15    8    9 1
    16    8   38 1
    17    9   10 2
    18   10   11 1
    19   10   28 1
    20   11   12 2
    21   11   13 am
    22   13   14 1
    23   14   15 1
    24   14   44 1
    25   14   45 1
    26   15   16 2
    27   15   17 am
    28   17   18 1
    29   17   46 1
    30   18   19 1
    31   18   47 1
    32   18   48 1
    33   19   24 ar
    34   19   20 ar
    35   20   21 ar
    36   20   49 1
    37   21   22 ar
    38   21   50 1
    39   22   23 ar
    40   22   25 1
    41   23   24 ar
    42   23   51 1
    43   24   52 1
    44   25   26 2
    45   25   27 1
    46   26   53 1
    47   26   65 1
    48   27   54 1
    49   27   55 1
    50   28   29 1
    51   28   56 1
    52   29   30 1
    53   29   57 1
    54   29   58 1
    55   30   31 1
    56   30   59 1
    57   30   60 1
    58   31   36 ar
    59   31   32 ar
    60   32   33 ar
    61   32   61 1
    62   33   34 ar
    63   33   62 1
    64   34   35 ar
    65   34   63 1
    66   35   36 ar
    67   35   64 1
    68   36   37 1
@<TRIPOS>MOLECULE
CHEMBL498660
   71    71     0     0     0
SMALL
USER_CHARGES

@<TRIPOS>ATOM
      1 C1         -0.1742    0.9453    1.4388 C.3       1 <0>        -0.1455
      2 C2          0.4646   -0.4443    1.4818 C.3       1 <0>        -0.1170
      3 C3          0.9095   -0.8448    0.0738 C.3       1 <0>        -0.6302
      4 S1          1.6670   -2.4923    0.1248 S.o2      1 <0>         2.6025
      5 O1          2.9533   -2.4213    0.7244 O.2       1 <0>        -0.9516
      6 O2          0.7166   -3.4546    0.5608 O.2       1 <0>        -0.9461
      7 N1          1.9597   -2.8753   -1.4595 N.pl3     1 <0>        -1.1021
      8 C4          2.8764   -2.0542   -2.2543 C.3       1 <0>         0.1362
      9 H1          3.5937   -1.5673   -1.5936 H         1 <0>         0.1150
     10 C5          2.0804   -0.9916   -3.0145 C.3       1 <0>        -0.1142
     11 H2          1.5297   -0.3735   -2.3054 H         1 <0>         0.0943
     12 C6          3.0409   -0.1128   -3.8184 C.3       1 <0>        -0.1636
     13 C7          1.0968   -1.6752   -3.9665 C.3       1 <0>        -0.1251
     14 C8         -0.0802   -2.2372   -3.1665 C.3       1 <0>        -0.1698
     15 C9          3.6117   -2.9293   -3.2364 C.2       1 <0>         0.5297
     16 O3          3.1051   -3.9591   -3.6285 O.2       1 <0>        -0.5211
     17 N2          4.8322   -2.5676   -3.6789 N.am      1 <0>        -0.7083
     18 C10         5.5049   -3.3658   -4.7069 C.3       1 <0>         0.1234
     19 H3          5.0653   -4.3627   -4.7383 H         1 <0>         0.1300
     20 C11         5.3351   -2.6904   -6.0692 C.3       1 <0>        -0.1098
     21 C12         3.8530   -2.6734   -6.4489 C.3       1 <0>        -0.1478
     22 C13         3.6794   -1.9573   -7.7634 C.2       1 <0>         0.5183
     23 O4          4.6458   -1.5049   -8.3399 O.2       1 <0>        -0.5462
     24 N3          2.4501   -1.8194   -8.2985 N.am      1 <0>        -0.8544
     25 C14         6.9718   -3.4737   -4.3791 C.2       1 <0>         0.5146
     26 O5          7.4121   -2.9368   -3.3847 O.2       1 <0>        -0.5155
     27 N4          7.7945   -4.1669   -5.1910 N.am      1 <0>        -0.7265
     28 C15         9.2206   -4.2719   -4.8723 C.3       1 <0>         0.1462
     29 C16         9.9125   -5.0929   -5.9297 C.ar      1 <0>        -0.0387
     30 C17        10.0090   -6.4652   -5.7827 C.ar      1 <0>        -0.0954
     31 C18        10.6416   -7.2224   -6.7471 C.ar      1 <0>        -0.0579
     32 C19        11.1842   -6.6015   -7.8725 C.ar      1 <0>        -0.1501
     33 C20        11.0832   -5.2173   -8.0150 C.ar      1 <0>        -0.0575
     34 C21        10.4435   -4.4719   -7.0461 C.ar      1 <0>        -0.0943
     35 C22        11.8645   -7.4076   -8.9103 C.cat     1 <0>         0.6002
     36 N5         12.3813   -6.8121   -9.9832 N.pl3     1 <0>        -0.7604
     37 N6         11.9597   -8.7283   -8.7713 N.pl3     1 <0>        -0.7606
     38 H4          0.5526    1.6680    1.0681 H         1 <0>         0.0593
     39 H5         -1.0392    0.9272    0.7758 H         1 <0>         0.0598
     40 H6         -0.4912    1.2307    2.4419 H         1 <0>         0.0652
     41 H7          1.3296   -0.4261    2.1448 H         1 <0>         0.0786
     42 H8         -0.2623   -1.1670    1.8525 H         1 <0>         0.0822
     43 H9          0.0445   -0.8630   -0.5892 H         1 <0>         0.1382
     44 H10         1.6364   -0.1221   -0.2969 H         1 <0>         0.1342
     45 H11         1.5243   -3.6434   -1.8612 H         1 <0>         0.4302
     46 H12         3.5064   -0.7078   -4.6041 H         1 <0>         0.0618
     47 H13         2.4887    0.7130   -4.2669 H         1 <0>         0.0717
     48 H14         3.8117    0.2823   -3.1568 H         1 <0>         0.0659
     49 H15         0.7294   -0.9494   -4.6920 H         1 <0>         0.0685
     50 H16         1.6019   -2.4875   -4.4890 H         1 <0>         0.0735
     51 H17        -0.7908   -2.7066   -3.8468 H         1 <0>         0.0590
     52 H18         0.2849   -2.9776   -2.4547 H         1 <0>         0.0681
     53 H19        -0.5730   -1.4277   -2.6280 H         1 <0>         0.0541
     54 H20         5.2653   -1.7788   -3.3168 H         1 <0>         0.4141
     55 H21         5.7084   -1.6676   -6.0168 H         1 <0>         0.0863
     56 H22         5.8966   -3.2440   -6.8217 H         1 <0>         0.0857
     57 H23         3.4901   -3.6970   -6.5421 H         1 <0>         0.1022
     58 H24         3.2857   -2.1558   -5.6754 H         1 <0>         0.1008
     59 H25         1.6771   -2.1812   -7.8375 H         1 <0>         0.4036
     60 H26         2.3383   -1.3585   -9.1446 H         1 <0>         0.4042
     61 H27         7.4424   -4.5963   -5.9863 H         1 <0>         0.4047
     62 H28         9.6602   -3.2750   -4.8409 H         1 <0>         0.0924
     63 H29         9.3415   -4.7530   -3.9018 H         1 <0>         0.0918
     64 H30         9.5885   -6.9447   -4.9111 H         1 <0>         0.1515
     65 H31        10.7170   -8.2935   -6.6309 H         1 <0>         0.1407
     66 H32        11.5015   -4.7308   -8.8838 H         1 <0>         0.1409
     67 H33        10.3611   -3.4008   -7.1572 H         1 <0>         0.1522
     68 H34        12.3120   -5.8499  -10.0845 H         1 <0>         0.4447
     69 H35        11.5832   -9.1621   -7.9896 H         1 <0>         0.4446
     70 H36        12.4057   -9.2567   -9.4516 H         1 <0>         0.4344
     71 H37        12.8273   -7.3405  -10.6635 H         1 <0>         0.4344
@<TRIPOS>BOND
     1    1    2 1
     2    1   38 1
     3    1   39 1
     4    1   40 1
     5    2    3 1
     6    2   41 1
     7    2   42 1
     8    3    4 1
     9    3   43 1
    10    3   44 1
    11    4    5 2
    12    4    6 2
    13    4    7 1
    14    7    8 1
    15    7   45 1
    16    8    9 1
    17    8   10 1
    18    8   15 1
    19   10   11 1
    20   10   12 1
    21   10   13 1
    22   12   46 1
    23   12   47 1
    24   12   48 1
    25   13   14 1
    26   13   49 1
    27   13   50 1
    28   14   51 1
    29   14   52 1
    30   14   53 1
    31   15   16 2
    32   15   17 am
    33   17   18 1
    34   17   54 1
    35   18   19 1
    36   18   20 1
    37   18   25 1
    38   20   21 1
    39   20   55 1
    40   20   56 1
    41   21   22 1
    42   21   57 1
    43   21   58 1
    44   22   23 2
    45   22   24 am
    46   24   59 1
    47   24   60 1
    48   25   26 2
    49   25   27 am
    50   27   28 1
    51   27   61 1
    52   28   29 1
    53   28   62 1
    54   28   63 1
    55   29   34 ar
    56   29   30 ar
    57   30   31 ar
    58   30   64 1
    59   31   32 ar
    60   31   65 1
    61   32   33 ar
    62   32   35 1
    63   33   34 ar
    64   33   66 1
    65   34   67 1
    66   35   36 2
    67   35   37 1
    68   36   68 1
    69   36   71 1
    70   37   69 1
    71   37   70 1
@<TRIPOS>MOLECULE
CHEMBL377956
   46    49     0     0     0
SMALL
USER_CHARGES

@<TRIPOS>ATOM
      1 C1         -0.0167    1.3788    0.0096 C.ar      1 <0>        -0.1148
      2 C2          1.1677    2.0877    0.0021 C.ar      1 <0>        -0.0555
      3 C3          2.3837    1.4075   -0.0131 C.ar      1 <0>        -0.0279
      4 C4          2.3966    0.0137   -0.0207 C.ar      1 <0>        -0.0415
      5 C5          1.2065   -0.6847   -0.0130 C.ar      1 <0>        -0.0419
      6 C6          0.0021   -0.0041    0.0020 C.ar      1 <0>        -0.0567
      7 N1          1.2185   -2.1648   -0.0215 N.pl3     1 <0>         0.0300
      8 O1          2.2703   -2.7607   -0.0352 O.2       1 <0>        -0.1473
      9 O2          0.1765   -2.7778   -0.0149 O.3       1 <0>        -0.1576
     10 C7          3.6597    2.1638   -0.0217 C.ar      1 <0>        -0.0760
     11 C8          4.6670    1.8447    0.8870 C.ar      1 <0>        -0.0522
     12 C9          5.8567    2.5468    0.8813 C.ar      1 <0>        -0.0113
     13 C10         6.0598    3.5701   -0.0232 C.ar      1 <0>        -0.0487
     14 C11         5.0623    3.9033   -0.9402 C.ar      1 <0>        -0.1010
     15 C12         3.8568    3.1933   -0.9440 C.ar      1 <0>         0.1240
     16 O3          2.8825    3.5069   -1.8358 O.3       1 <0>        -0.4933
     17 C13         5.2805    4.9993   -1.9077 C.2       1 <0>         0.2386
     18 C14         5.9022    6.1746   -1.6360 C.2       1 <0>        -0.2101
     19 C15         5.9072    6.9487   -2.8230 C.ar      1 <0>         0.1239
     20 C16         5.2616    6.1810   -3.8091 C.ar      1 <0>         0.0211
     21 N2          4.8908    4.9861   -3.2262 N.pl3     1 <0>        -0.5342
     22 H1          4.4294    4.2587   -3.6721 H         1 <0>         0.4442
     23 C17         5.1217    6.7018   -5.0930 C.ar      1 <0>         0.0580
     24 C18         5.6262    7.9617   -5.3501 C.ar      1 <0>        -0.2119
     25 C19         6.2560    8.6725   -4.3285 C.ar      1 <0>         0.4734
     26 N3          6.3789    8.1623   -3.1172 N.ar      1 <0>        -0.4919
     27 N4          6.7632    9.9414   -4.5905 N.pl3     1 <0>        -0.8276
     28 C20         6.9393    2.1940    1.8686 C.3       1 <0>        -0.1665
     29 C21         7.8437    1.1478    1.2698 C.2       1 <0>         0.4960
     30 O4          7.6291    0.7276    0.1455 O.co2     1 <0>        -0.6875
     31 O5          8.7900    0.7215    1.9095 O.co2     1 <0>        -0.6872
     32 H2         -0.9597    1.9050    0.0260 H         1 <0>         0.1491
     33 H3          1.1519    3.1676    0.0077 H         1 <0>         0.1359
     34 H4          3.3362   -0.5186   -0.0328 H         1 <0>         0.1597
     35 H5         -0.9270   -0.5547    0.0083 H         1 <0>         0.1544
     36 H6          4.5168    1.0461    1.5983 H         1 <0>         0.1352
     37 H7          6.9927    4.1141   -0.0206 H         1 <0>         0.1359
     38 H8          2.2611    4.1771   -1.5200 H         1 <0>         0.3860
     39 H9          6.3189    6.4680   -0.6838 H         1 <0>         0.1754
     40 H10         4.6307    6.1339   -5.8694 H         1 <0>         0.1700
     41 H11         5.5339    8.3935   -6.3357 H         1 <0>         0.1807
     42 H12         6.6772   10.3244   -5.4775 H         1 <0>         0.4377
     43 H13         7.2027   10.4430   -3.8862 H         1 <0>         0.4190
     44 H14         7.5208    3.0853    2.1040 H         1 <0>         0.0779
     45 H15         6.4866    1.8042    2.7803 H         1 <0>         0.0795
     46 H16         6.8217    8.6799   -2.4266 H         1 <0>         0.4370
@<TRIPOS>BOND
     1    1    6 ar
     2    1    2 ar
     3    1   32 1
     4    2    3 ar
     5    2   33 1
     6    3    4 ar
     7    3   10 1
     8    4    5 ar
     9    4   34 1
    10    5    6 ar
    11    5    7 1
    12    6   35 1
    13    7    8 2
    14    7    9 1
    15   10   15 ar
    16   10   11 ar
    17   11   12 ar
    18   11   36 1
    19   12   13 ar
    20   12   28 1
    21   13   14 ar
    22   13   37 1
    23   14   15 ar
    24   14   17 1
    25   15   16 1
    26   16   38 1
    27   17   21 1
    28   17   18 2
    29   18   19 1
    30   18   39 1
    31   19   26 ar
    32   19   20 ar
    33   20   21 1
    34   20   23 ar
    35   21   22 1
    36   23   24 ar
    37   23   40 1
    38   24   25 ar
    39   24   41 1
    40   25   26 ar
    41   25   27 1
    42   26   46 1
    43   27   42 1
    44   27   43 1
    45   28   29 1
    46   28   44 1
    47   28   45 1
    48   29   30 2
    49   29   31 1
@<TRIPOS>MOLECULE
CHEMBL377956__1
   45    48     0     0     0
SMALL
USER_CHARGES

@<TRIPOS>ATOM
      1 C1         -0.0167    1.3788    0.0096 C.ar      1 <0>        -0.1157
      2 C2          1.1677    2.0877    0.0021 C.ar      1 <0>        -0.0546
      3 C3          2.3837    1.4075   -0.0131 C.ar      1 <0>        -0.0148
      4 C4          2.3966    0.0137   -0.0207 C.ar      1 <0>        -0.0429
      5 C5          1.2065   -0.6847   -0.0130 C.ar      1 <0>        -0.0447
      6 C6          0.0021   -0.0041    0.0020 C.ar      1 <0>        -0.0628
      7 N1          1.2185   -2.1648   -0.0215 N.pl3     1 <0>         0.0335
      8 O1          2.2703   -2.7607   -0.0352 O.2       1 <0>        -0.1509
      9 O2          0.1765   -2.7778   -0.0149 O.3       1 <0>        -0.1654
     10 C7          3.6597    2.1638   -0.0217 C.ar      1 <0>        -0.0865
     11 C8          4.6670    1.8447    0.8870 C.ar      1 <0>        -0.0689
     12 C9          5.8567    2.5468    0.8813 C.ar      1 <0>        -0.0177
     13 C10         6.0598    3.5701   -0.0232 C.ar      1 <0>        -0.0733
     14 C11         5.0623    3.9033   -0.9402 C.ar      1 <0>        -0.0637
     15 C12         3.8568    3.1933   -0.9440 C.ar      1 <0>         0.1315
     16 O3          2.8825    3.5069   -1.8358 O.3       1 <0>        -0.4800
     17 C13         5.2805    4.9993   -1.9077 C.2       1 <0>         0.1568
     18 C14         4.8903    4.9888   -3.2074 C.2       1 <0>        -0.1702
     19 C15         5.2845    6.2190   -3.7900 C.ar      1 <0>         0.1457
     20 C16         5.9250    6.9583   -2.7790 C.ar      1 <0>        -0.0056
     21 N2          5.9055    6.1922   -1.6310 N.pl3     1 <0>        -0.5786
     22 H1          6.2741    6.4515   -0.7720 H         1 <0>         0.4171
     23 C17         6.4212    8.2256   -3.0738 C.ar      1 <0>        -0.0394
     24 C18         6.2639    8.7111   -4.3574 C.ar      1 <0>        -0.2151
     25 C19         5.6192    7.9284   -5.3150 C.ar      1 <0>         0.3946
     26 N3          5.1557    6.7289   -5.0168 N.ar      1 <0>        -0.5207
     27 N4          5.4623    8.4202   -6.6071 N.pl3     1 <0>        -0.8588
     28 C20         6.9393    2.1940    1.8686 C.3       1 <0>        -0.1615
     29 C21         7.8437    1.1478    1.2698 C.2       1 <0>         0.4956
     30 O4          7.6291    0.7276    0.1455 O.co2     1 <0>        -0.6829
     31 O5          8.7900    0.7215    1.9095 O.co2     1 <0>        -0.6970
     32 H2         -0.9597    1.9050    0.0260 H         1 <0>         0.1471
     33 H3          1.1519    3.1676    0.0077 H         1 <0>         0.1379
     34 H4          3.3362   -0.5186   -0.0328 H         1 <0>         0.1589
     35 H5         -0.9270   -0.5547    0.0083 H         1 <0>         0.1510
     36 H6          4.5168    1.0461    1.5983 H         1 <0>         0.1276
     37 H7          6.9927    4.1141   -0.0206 H         1 <0>         0.1240
     38 H8          2.2611    4.1771   -1.5200 H         1 <0>         0.3800
     39 H9          4.3716    4.1852   -3.7090 H         1 <0>         0.1550
     40 H10         6.9169    8.8150   -2.3167 H         1 <0>         0.1306
     41 H11         6.6374    9.6905   -4.6176 H         1 <0>         0.1324
     42 H12         5.8000    9.3004   -6.8354 H         1 <0>         0.4043
     43 H13         5.0153    7.8828   -7.2797 H         1 <0>         0.4013
     44 H14         7.5208    3.0853    2.1040 H         1 <0>         0.0726
     45 H15         6.4866    1.8042    2.7803 H         1 <0>         0.0742
@<TRIPOS>BOND
     1    1    6 ar
     2    1    2 ar
     3    1   32 1
     4    2    3 ar
     5    2   33 1
     6    3    4 ar
     7    3   10 1
     8    4    5 ar
     9    4   34 1
    10    5    6 ar
    11    5    7 1
    12    6   35 1
    13    7    8 2
    14    7    9 1
    15   10   15 ar
    16   10   11 ar
    17   11   12 ar
    18   11   36 1
    19   12   13 ar
    20   12   28 1
    21   13   14 ar
    22   13   37 1
    23   14   15 ar
    24   14   17 1
    25   15   16 1
    26   16   38 1
    27   17   21 1
    28   17   18 2
    29   18   19 1
    30   18   39 1
    31   19   26 ar
    32   19   20 ar
    33   20   21 1
    34   20   23 ar
    35   21   22 1
    36   23   24 ar
    37   23   40 1
    38   24   25 ar
    39   24   41 1
    40   25   26 ar
    41   25   27 1
    42   27   42 1
    43   27   43 1
    44   28   29 1
    45   28   44 1
    46   28   45 1
    47   29   30 2
    48   29   31 1
@<TRIPOS>MOLECULE
CHEMBL202433
   28    30     0     0     0
SMALL
USER_CHARGES

@<TRIPOS>ATOM
      1 C1         -0.0169    1.3959    0.0097 C.ar      1 <0>        -0.0694
      2 C2          1.1505    2.1043    0.0024 C.ar      1 <0>        -0.0871
      3 C3          2.3705    1.4396   -0.0129 C.ar      1 <0>         0.0946
      4 C4          2.4086    0.0322   -0.0208 C.ar      1 <0>         0.0524
      5 C5          1.2137   -0.6874   -0.0137 C.ar      1 <0>         0.0099
      6 C6          0.0021   -0.0041    0.0020 C.ar      1 <0>        -0.1675
      7 C7         -1.2692   -0.7582    0.0101 C.cat     1 <0>         0.6092
      8 N1         -2.3462   -0.2419    0.6001 N.pl3     1 <0>        -0.7603
      9 N2         -1.3378   -1.9543   -0.5725 N.pl3     1 <0>        -0.7614
     10 N3          3.7151   -0.3335   -0.0353 N.2       1 <0>        -0.4806
     11 C8          4.4708    0.7382   -0.0367 C.2       1 <0>         0.4170
     12 N4          3.6848    1.8599   -0.0232 N.pl3     1 <0>        -0.5763
     13 H1          3.9945    2.7791   -0.0218 H         1 <0>         0.4406
     14 C9          5.9476    0.7360   -0.0501 C.2       1 <0>         0.0126
     15 C10         6.7491   -0.3650   -0.0688 C.2       1 <0>         0.0445
     16 N5          8.0358    0.0864   -0.0757 N.pl3     1 <0>        -0.5629
     17 H2          8.8362   -0.4614   -0.0890 H         1 <0>         0.4346
     18 C11         7.9909    1.4431   -0.0612 C.2       1 <0>         0.2130
     19 N6          6.7457    1.8254   -0.0518 N.2       1 <0>        -0.4797
     20 H3         -0.9615    1.9192    0.0261 H         1 <0>         0.1451
     21 H4          1.1254    3.1839    0.0081 H         1 <0>         0.1472
     22 H5          1.2291   -1.7673   -0.0199 H         1 <0>         0.1478
     23 H6         -2.2962    0.6289    1.0243 H         1 <0>         0.4462
     24 H7         -0.5536   -2.3302   -1.0021 H         1 <0>         0.4463
     25 H8         -2.1720   -2.4492   -0.5672 H         1 <0>         0.4324
     26 H9          6.4278   -1.3961   -0.0763 H         1 <0>         0.1964
     27 H10         8.8487    2.0993   -0.0616 H         1 <0>         0.2229
     28 H11        -3.1804   -0.7368    0.6054 H         1 <0>         0.4324
@<TRIPOS>BOND
     1    1    6 ar
     2    1    2 ar
     3    1   20 1
     4    2    3 ar
     5    2   21 1
     6    3   12 1
     7    3    4 ar
     8    4    5 ar
     9    4   10 1
    10    5    6 ar
    11    5   22 1
    12    6    7 1
    13    7    8 2
    14    7    9 1
    15    8   23 1
    16    8   28 1
    17    9   24 1
    18    9   25 1
    19   10   11 2
    20   11   12 1
    21   11   14 1
    22   12   13 1
    23   14   19 1
    24   14   15 2
    25   15   16 1
    26   15   26 1
    27   16   17 1
    28   16   18 1
    29   18   19 2
    30   18   27 1
@<TRIPOS>MOLECULE
CHEMBL202433__1
   28    30     0     0     0
SMALL
USER_CHARGES

@<TRIPOS>ATOM
      1 C1         -0.0169    1.3959    0.0097 C.ar      1 <0>        -0.0659
      2 C2          1.1505    2.1044    0.0024 C.ar      1 <0>        -0.0893
      3 C3          2.3706    1.4399   -0.0129 C.ar      1 <0>         0.0968
      4 C4          2.4089    0.0323   -0.0208 C.ar      1 <0>         0.0550
      5 C5          1.2136   -0.6875   -0.0130 C.ar      1 <0>         0.0117
      6 C6          0.0021   -0.0041    0.0020 C.ar      1 <0>        -0.1642
      7 C7         -1.2692   -0.7582    0.0101 C.cat     1 <0>         0.6086
      8 N1         -2.3462   -0.2418    0.6001 N.pl3     1 <0>        -0.7594
      9 N2         -1.3379   -1.9542   -0.5725 N.pl3     1 <0>        -0.7595
     10 N3          3.7145   -0.3340   -0.0360 N.2       1 <0>        -0.4634
     11 C8          4.4718    0.7385   -0.0379 C.2       1 <0>         0.4019
     12 N4          3.6845    1.8613   -0.0239 N.pl3     1 <0>        -0.5957
     13 H1          3.9937    2.7806   -0.0218 H         1 <0>         0.4313
     14 C9          5.9432    0.7361   -0.0521 C.2       1 <0>        -0.0227
     15 C10         6.7588   -0.3576   -0.0663 C.2       1 <0>         0.0876
     16 N5          8.0225    0.0746   -0.0759 N.2       1 <0>        -0.4910
     17 H2          6.4936    2.7685   -0.0560 H         1 <0>         0.4228
     18 C11         8.0397    1.3816   -0.0684 C.2       1 <0>         0.2424
     19 N6          6.7713    1.8391   -0.0596 N.pl3     1 <0>        -0.5658
     20 H3         -0.9615    1.9192    0.0261 H         1 <0>         0.1467
     21 H4          1.1253    3.1841    0.0081 H         1 <0>         0.1472
     22 H5          1.2289   -1.7674   -0.0193 H         1 <0>         0.1507
     23 H6         -2.2962    0.6290    1.0243 H         1 <0>         0.4462
     24 H7         -0.5537   -2.3302   -1.0021 H         1 <0>         0.4468
     25 H8         -2.1721   -2.4491   -0.5672 H         1 <0>         0.4333
     26 H9          6.4394   -1.3892   -0.0688 H         1 <0>         0.1896
     27 H10         8.9275    1.9966   -0.0733 H         1 <0>         0.2249
     28 H11        -3.1805   -0.7367    0.6054 H         1 <0>         0.4333
@<TRIPOS>BOND
     1    1    6 ar
     2    1    2 ar
     3    1   20 1
     4    2    3 ar
     5    2   21 1
     6    3   12 1
     7    3    4 ar
     8    4    5 ar
     9    4   10 1
    10    5    6 ar
    11    5   22 1
    12    6    7 1
    13    7    8 2
    14    7    9 1
    15    8   23 1
    16    8   28 1
    17    9   24 1
    18    9   25 1
    19   10   11 2
    20   11   12 1
    21   11   14 1
    22   12   13 1
    23   14   15 2
    24   14   19 1
    25   15   16 1
    26   15   26 1
    27   16   18 2
    28   17   19 1
    29   18   27 1
    30   18   19 1
@<TRIPOS>MOLECULE
CHEMBL429152
   72    75     0     0     0
SMALL
USER_CHARGES

@<TRIPOS>ATOM
      1 C1          0.0430   -1.4538   -0.4807 C.3       1 <0>        -0.1597
      2 C2          0.7169   -2.8244   -0.5720 C.3       1 <0>         0.1885
      3 C3          1.4869   -3.0910    0.6957 C.ar      1 <0>        -0.1182
      4 C4          2.7339   -2.5218    0.8781 C.ar      1 <0>        -0.0932
      5 C5          3.4419   -2.7638    2.0389 C.ar      1 <0>        -0.1335
      6 C6          2.9002   -3.5799    3.0236 C.ar      1 <0>         0.1527
      7 C7          1.6475   -4.1500    2.8372 C.ar      1 <0>        -0.1441
      8 C8          0.9424   -3.8998    1.6764 C.ar      1 <0>        -0.0823
      9 N1          3.6148   -3.8273    4.2000 N.am      1 <0>        -0.6650
     10 C9          4.9587   -3.7254    4.2063 C.2       1 <0>         0.5640
     11 O1          5.5397   -3.2892    3.2316 O.2       1 <0>        -0.5094
     12 C10         5.7262   -4.1440    5.3983 C.ar      1 <0>        -0.1050
     13 C11         5.0618   -4.6506    6.5170 C.ar      1 <0>        -0.1177
     14 C12         5.7811   -5.0404    7.6279 C.ar      1 <0>        -0.0858
     15 C13         7.1595   -4.9306    7.6380 C.ar      1 <0>        -0.1130
     16 C14         7.8290   -4.4280    6.5304 C.ar      1 <0>         0.1176
     17 C15         7.1172   -4.0396    5.4075 C.ar      1 <0>        -0.1312
     18 O2          9.1838   -4.3219    6.5461 O.3       1 <0>        -0.2537
     19 C16         9.7850   -3.6757    5.5130 C.ar      1 <0>         0.0761
     20 C17         9.7370   -2.2910    5.4370 C.ar      1 <0>        -0.1307
     21 C18        10.3491   -1.6366    4.3857 C.ar      1 <0>        -0.1031
     22 C19        11.0091   -2.3600    3.4096 C.ar      1 <0>        -0.1146
     23 C20        11.0585   -3.7399    3.4829 C.ar      1 <0>        -0.1043
     24 C21        10.4530   -4.3990    4.5352 C.ar      1 <0>        -0.1201
     25 N2          1.6347   -2.8422   -1.7137 N.am      1 <0>        -0.7154
     26 C22         1.1717   -3.1314   -2.9460 C.2       1 <0>         0.5115
     27 O3         -0.0047   -3.3768   -3.1097 O.2       1 <0>        -0.5348
     28 C23         2.1158   -3.1497   -4.1205 C.3       1 <0>         0.1147
     29 N3          1.3743   -3.4882   -5.3378 N.am      1 <0>        -0.7191
     30 C24         2.0177   -3.5636   -6.5197 C.2       1 <0>         0.7090
     31 O4          3.2134   -3.3508   -6.5756 O.2       1 <0>        -0.5629
     32 N4          1.3356   -3.8750   -7.6396 N.am      1 <0>        -0.6829
     33 C25         2.0224   -4.1266   -8.8273 C.ar      1 <0>         0.2527
     34 C26         3.2873   -4.7041   -8.7886 C.ar      1 <0>        -0.1280
     35 C27         3.9680   -4.9533   -9.9593 C.ar      1 <0>        -0.0294
     36 C28         3.3869   -4.6259  -11.1866 C.ar      1 <0>        -0.1886
     37 C29         2.1164   -4.0465  -11.2221 C.ar      1 <0>        -0.0274
     38 C30         1.4386   -3.8046  -10.0482 C.ar      1 <0>        -0.1527
     39 C31         4.1147   -4.8915  -12.4445 C.cat     1 <0>         0.6036
     40 N5          3.5591   -4.5787  -13.6145 N.pl3     1 <0>        -0.7667
     41 N6          5.3268   -5.4439  -12.4090 N.pl3     1 <0>        -0.7658
     42 H1          0.8028   -0.6835   -0.3482 H         1 <0>         0.0613
     43 H2         -0.5139   -1.2609   -1.3976 H         1 <0>         0.0643
     44 H3         -0.6398   -1.4405    0.3688 H         1 <0>         0.0724
     45 H4         -0.0429   -3.5946   -0.7045 H         1 <0>         0.0993
     46 H5          3.1546   -1.8876    0.1119 H         1 <0>         0.1233
     47 H6          4.4159   -2.3192    2.1806 H         1 <0>         0.1607
     48 H7          1.2236   -4.7851    3.6010 H         1 <0>         0.1301
     49 H8         -0.0335   -4.3395    1.5326 H         1 <0>         0.1303
     50 H9          3.1432   -4.0723    5.0115 H         1 <0>         0.4138
     51 H10         3.9853   -4.7371    6.5127 H         1 <0>         0.1294
     52 H11         5.2660   -5.4321    8.4925 H         1 <0>         0.1428
     53 H12         7.7173   -5.2366    8.5107 H         1 <0>         0.1420
     54 H13         7.6370   -3.6529    4.5434 H         1 <0>         0.1442
     55 H14         9.2213   -1.7255    6.1990 H         1 <0>         0.1303
     56 H15        10.3117   -0.5589    4.3259 H         1 <0>         0.1317
     57 H16        11.4867   -1.8464    2.5883 H         1 <0>         0.1298
     58 H17        11.5747   -4.3027    2.7192 H         1 <0>         0.1325
     59 H18        10.4959   -5.4765    4.5945 H         1 <0>         0.1328
     60 H19         2.5755   -2.6459   -1.5828 H         1 <0>         0.4050
     61 H20         2.5727   -2.1667   -4.2348 H         1 <0>         0.1065
     62 H21         2.8935   -3.8942   -3.9499 H         1 <0>         0.1064
     63 H22         0.4204   -3.6580   -5.2932 H         1 <0>         0.4147
     64 H23         0.3670   -3.9241   -7.6197 H         1 <0>         0.4207
     65 H24         3.7361   -4.9570   -7.8394 H         1 <0>         0.1592
     66 H25         4.9503   -5.4011   -9.9286 H         1 <0>         0.1402
     67 H26         1.6645   -3.7923  -12.1695 H         1 <0>         0.1413
     68 H27         0.4545   -3.3603  -10.0752 H         1 <0>         0.1517
     69 H28         2.6767   -4.1766  -13.6404 H         1 <0>         0.4430
     70 H29         5.7313   -5.6717  -11.5573 H         1 <0>         0.4437
     71 H30         5.8047   -5.6183  -13.2349 H         1 <0>         0.4322
     72 H31         4.0370   -4.7531  -14.4404 H         1 <0>         0.4322
@<TRIPOS>BOND
     1    1    2 1
     2    1   42 1
     3    1   43 1
     4    1   44 1
     5    2    3 1
     6    2   25 1
     7    2   45 1
     8    3    8 ar
     9    3    4 ar
    10    4    5 ar
    11    4   46 1
    12    5    6 ar
    13    5   47 1
    14    6    7 ar
    15    6    9 1
    16    7    8 ar
    17    7   48 1
    18    8   49 1
    19    9   10 am
    20    9   50 1
    21   10   11 2
    22   10   12 1
    23   12   17 ar
    24   12   13 ar
    25   13   14 ar
    26   13   51 1
    27   14   15 ar
    28   14   52 1
    29   15   16 ar
    30   15   53 1
    31   16   17 ar
    32   16   18 1
    33   17   54 1
    34   18   19 1
    35   19   24 ar
    36   19   20 ar
    37   20   21 ar
    38   20   55 1
    39   21   22 ar
    40   21   56 1
    41   22   23 ar
    42   22   57 1
    43   23   24 ar
    44   23   58 1
    45   24   59 1
    46   25   26 am
    47   25   60 1
    48   26   27 2
    49   26   28 1
    50   28   29 1
    51   28   61 1
    52   28   62 1
    53   29   30 am
    54   29   63 1
    55   30   31 2
    56   30   32 am
    57   32   33 1
    58   32   64 1
    59   33   38 ar
    60   33   34 ar
    61   34   35 ar
    62   34   65 1
    63   35   36 ar
    64   35   66 1
    65   36   37 ar
    66   36   39 1
    67   37   38 ar
    68   37   67 1
    69   38   68 1
    70   39   40 2
    71   39   41 1
    72   40   69 1
    73   40   72 1
    74   41   70 1
    75   41   71 1
@<TRIPOS>MOLECULE
CHEMBL429152__1
   72    75     0     0     0
SMALL
USER_CHARGES

@<TRIPOS>ATOM
      1 C1          1.4406    3.8640   -0.9392 C.3       1 <0>        -0.1599
      2 C2          0.9035    2.4324   -0.9952 C.3       1 <0>         0.1887
      3 C3          1.6612    1.6521   -2.0384 C.ar      1 <0>        -0.1183
      4 C4          2.9071    1.1313   -1.7405 C.ar      1 <0>        -0.0933
      5 C5          3.6039    0.4153   -2.6940 C.ar      1 <0>        -0.1336
      6 C6          3.0519    0.2187   -3.9533 C.ar      1 <0>         0.1528
      7 C7          1.8004    0.7432   -4.2493 C.ar      1 <0>        -0.1442
      8 C8          1.1066    1.4537   -3.2895 C.ar      1 <0>        -0.0823
      9 N1          3.7550   -0.5054   -4.9213 N.am      1 <0>        -0.6652
     10 C9          5.0989   -0.5860   -4.8585 C.2       1 <0>         0.5638
     11 O1          5.6896   -0.1462   -3.8913 O.2       1 <0>        -0.5085
     12 C10         5.8546   -1.2091   -5.9657 C.ar      1 <0>        -0.1049
     13 C11         5.1791   -1.7099   -7.0803 C.ar      1 <0>        -0.1180
     14 C12         5.8874   -2.2909   -8.1119 C.ar      1 <0>        -0.0859
     15 C13         7.2658   -2.3797   -8.0460 C.ar      1 <0>        -0.1132
     16 C14         7.9464   -1.8846   -6.9418 C.ar      1 <0>         0.1180
     17 C15         7.2456   -1.2937   -5.9033 C.ar      1 <0>        -0.1312
     18 O2          9.3010   -1.9750   -6.8822 O.3       1 <0>        -0.2535
     19 C16         9.9128   -1.6302   -5.7188 C.ar      1 <0>         0.0757
     20 C17         9.8671   -2.4876   -4.6289 C.ar      1 <0>        -0.1312
     21 C18        10.4898   -2.1347   -3.4474 C.ar      1 <0>        -0.1037
     22 C19        11.1582   -0.9282   -3.3504 C.ar      1 <0>        -0.1144
     23 C20        11.2053   -0.0719   -4.4350 C.ar      1 <0>        -0.1036
     24 C21        10.5891   -0.4225   -5.6206 C.ar      1 <0>        -0.1195
     25 N2          1.0757    1.7947    0.3124 N.am      1 <0>        -0.7153
     26 C22         0.1474    1.9678    1.2740 C.2       1 <0>         0.5114
     27 O3         -0.8305    2.6514    1.0569 O.2       1 <0>        -0.5346
     28 C23         0.3246    1.3118    2.6191 C.3       1 <0>         0.1148
     29 N3         -0.8103    1.6511    3.4812 N.am      1 <0>        -0.7191
     30 C24        -0.8671    1.1727    4.7399 C.2       1 <0>         0.7090
     31 O4          0.0235    0.4596    5.1600 O.2       1 <0>        -0.5631
     32 N4         -1.9111    1.4849    5.5330 N.am      1 <0>        -0.6829
     33 C25        -1.8878    1.1405    6.8844 C.ar      1 <0>         0.2527
     34 C26        -0.6790    1.1096    7.5721 C.ar      1 <0>        -0.1280
     35 C27        -0.6526    0.7696    8.9061 C.ar      1 <0>        -0.0294
     36 C28        -1.8415    0.4558    9.5690 C.ar      1 <0>        -0.1887
     37 C29        -3.0538    0.4881    8.8758 C.ar      1 <0>        -0.0273
     38 C30        -3.0741    0.8341    7.5432 C.ar      1 <0>        -0.1528
     39 C31        -1.8167    0.0901   11.0001 C.cat     1 <0>         0.6036
     40 N5         -2.9516   -0.2090   11.6311 N.pl3     1 <0>        -0.7667
     41 N6         -0.6594    0.0592   11.6599 N.pl3     1 <0>        -0.7658
     42 H1          2.4994    3.8450   -0.6809 H         1 <0>         0.0613
     43 H2          1.3124    4.3384   -1.9121 H         1 <0>         0.0723
     44 H3          0.8926    4.4284   -0.1847 H         1 <0>         0.0643
     45 H4         -0.1553    2.4514   -1.2536 H         1 <0>         0.0995
     46 H5          3.3358    1.2848   -0.7612 H         1 <0>         0.1231
     47 H6          4.5770    0.0090   -2.4609 H         1 <0>         0.1607
     48 H7          1.3684    0.5920   -5.2275 H         1 <0>         0.1301
     49 H8          0.1316    1.8583   -3.5176 H         1 <0>         0.1303
     50 H9          3.2755   -0.9497   -5.6379 H         1 <0>         0.4136
     51 H10         4.1025   -1.6428   -7.1347 H         1 <0>         0.1292
     52 H11         5.3637   -2.6778   -8.9735 H         1 <0>         0.1427
     53 H12         7.8149   -2.8362   -8.8562 H         1 <0>         0.1420
     54 H13         7.7741   -0.9038   -5.0459 H         1 <0>         0.1444
     55 H14         9.3449   -3.4300   -4.7040 H         1 <0>         0.1299
     56 H15        10.4543   -2.8016   -2.5986 H         1 <0>         0.1312
     57 H16        11.6441   -0.6539   -2.4257 H         1 <0>         0.1299
     58 H17        11.7280    0.8699   -4.3567 H         1 <0>         0.1332
     59 H18        10.6302    0.2445   -6.4690 H         1 <0>         0.1333
     60 H19         1.8579    1.2479    0.4861 H         1 <0>         0.4048
     61 H20         0.3739    0.2303    2.4923 H         1 <0>         0.1063
     62 H21         1.2478    1.6663    3.0775 H         1 <0>         0.1064
     63 H22        -1.5208    2.2201    3.1461 H         1 <0>         0.4147
     64 H23        -2.6787    1.9491    5.1640 H         1 <0>         0.4208
     65 H24         0.2399    1.3523    7.0590 H         1 <0>         0.1592
     66 H25         0.2863    0.7451    9.4393 H         1 <0>         0.1402
     67 H26        -3.9746    0.2461    9.3856 H         1 <0>         0.1413
     68 H27        -4.0116    0.8632    7.0077 H         1 <0>         0.1517
     69 H28        -3.7940   -0.1865   11.1508 H         1 <0>         0.4430
     70 H29         0.1667    0.2769   11.2006 H         1 <0>         0.4437
     71 H30        -0.6431   -0.1809   12.5996 H         1 <0>         0.4323
     72 H31        -2.9353   -0.4492   12.5708 H         1 <0>         0.4322
@<TRIPOS>BOND
     1    1    2 1
     2    1   42 1
     3    1   43 1
     4    1   44 1
     5    2    3 1
     6    2   25 1
     7    2   45 1
     8    3    8 ar
     9    3    4 ar
    10    4    5 ar
    11    4   46 1
    12    5    6 ar
    13    5   47 1
    14    6    7 ar
    15    6    9 1
    16    7    8 ar
    17    7   48 1
    18    8   49 1
    19    9   10 am
    20    9   50 1
    21   10   11 2
    22   10   12 1
    23   12   17 ar
    24   12   13 ar
    25   13   14 ar
    26   13   51 1
    27   14   15 ar
    28   14   52 1
    29   15   16 ar
    30   15   53 1
    31   16   17 ar
    32   16   18 1
    33   17   54 1
    34   18   19 1
    35   19   24 ar
    36   19   20 ar
    37   20   21 ar
    38   20   55 1
    39   21   22 ar
    40   21   56 1
    41   22   23 ar
    42   22   57 1
    43   23   24 ar
    44   23   58 1
    45   24   59 1
    46   25   26 am
    47   25   60 1
    48   26   27 2
    49   26   28 1
    50   28   29 1
    51   28   61 1
    52   28   62 1
    53   29   30 am
    54   29   63 1
    55   30   31 2
    56   30   32 am
    57   32   33 1
    58   32   64 1
    59   33   38 ar
    60   33   34 ar
    61   34   35 ar
    62   34   65 1
    63   35   36 ar
    64   35   66 1
    65   36   37 ar
    66   36   39 1
    67   37   38 ar
    68   37   67 1
    69   38   68 1
    70   39   40 2
    71   39   41 1
    72   40   69 1
    73   40   72 1
    74   41   70 1
    75   41   71 1
@<TRIPOS>MOLECULE
CHEMBL202010
   34    37     0     0     0
SMALL
USER_CHARGES

@<TRIPOS>ATOM
      1 C1         -0.0166    1.3741    0.0096 C.ar      1 <0>        -0.0778
      2 C2          1.1702    2.0948    0.0021 C.ar      1 <0>        -0.1199
      3 C3          2.3752    1.4535   -0.0132 C.ar      1 <0>        -0.0551
      4 C4          2.4207    0.0540   -0.0211 C.ar      1 <0>         0.0466
      5 C5          1.2174   -0.6760   -0.0131 C.ar      1 <0>         0.0717
      6 C6          0.0021   -0.0041    0.0020 C.ar      1 <0>        -0.1146
      7 N1          1.5750   -2.0077   -0.0245 N.pl3     1 <0>        -0.5614
      8 H1          0.9712   -2.7669   -0.0232 H         1 <0>         0.4364
      9 C7          2.9445   -2.0562   -0.0387 C.2       1 <0>         0.3077
     10 N2          3.4300   -0.8386   -0.0366 N.2       1 <0>        -0.4518
     11 C8          3.7509   -3.2924   -0.0541 C.2       1 <0>         0.4048
     12 N3          3.2646   -4.5108   -0.0619 N.2       1 <0>        -0.4742
     13 C9          4.2718   -5.4038   -0.0755 C.ar      1 <0>         0.1149
     14 C10         4.3108   -6.8056   -0.0879 C.ar      1 <0>        -0.0462
     15 C11         5.5074   -7.4548   -0.1004 C.ar      1 <0>        -0.0835
     16 C12         6.7092   -6.7339   -0.1011 C.ar      1 <0>        -0.1465
     17 C13         6.6902   -5.3413   -0.0884 C.ar      1 <0>        -0.0229
     18 C14         5.4768   -4.6738   -0.0761 C.ar      1 <0>         0.0397
     19 N4          5.1188   -3.3404   -0.0684 N.pl3     1 <0>        -0.5591
     20 C15         8.0000   -7.4532   -0.1147 C.cat     1 <0>         0.6075
     21 N5          8.0987   -8.6554    0.4512 N.pl3     1 <0>        -0.7567
     22 N6          9.0651   -6.8995   -0.6930 N.pl3     1 <0>        -0.7613
     23 H2         -0.9613    1.8973    0.0259 H         1 <0>         0.1402
     24 H3          1.1397    3.1743    0.0082 H         1 <0>         0.1389
     25 H4          3.2918    2.0246   -0.0196 H         1 <0>         0.1364
     26 H5         -0.9244   -0.5590    0.0082 H         1 <0>         0.1328
     27 H6          3.3905   -7.3708   -0.0872 H         1 <0>         0.1568
     28 H7          5.5306   -8.5345   -0.1096 H         1 <0>         0.1477
     29 H8          7.6161   -4.7853   -0.0882 H         1 <0>         0.1446
     30 H9          7.3234   -9.0584    0.8722 H         1 <0>         0.4475
     31 H10         8.9932   -6.0243   -1.1050 H         1 <0>         0.4452
     32 H11         9.9124   -7.3717   -0.7020 H         1 <0>         0.4336
     33 H12         8.9460   -9.1275    0.4423 H         1 <0>         0.4337
     34 H13         5.7225   -2.5811   -0.0706 H         1 <0>         0.4444
@<TRIPOS>BOND
     1    1    6 ar
     2    1    2 ar
     3    1   23 1
     4    2    3 ar
     5    2   24 1
     6    3    4 ar
     7    3   25 1
     8    4   10 1
     9    4    5 ar
    10    5    6 ar
    11    5    7 1
    12    6   26 1
    13    7    8 1
    14    7    9 1
    15    9   10 2
    16    9   11 1
    17   11   19 1
    18   11   12 2
    19   12   13 1
    20   13   18 ar
    21   13   14 ar
    22   14   15 ar
    23   14   27 1
    24   15   16 ar
    25   15   28 1
    26   16   17 ar
    27   16   20 1
    28   17   18 ar
    29   17   29 1
    30   18   19 1
    31   19   34 1
    32   20   21 2
    33   20   22 1
    34   21   30 1
    35   21   33 1
    36   22   31 1
    37   22   32 1
@<TRIPOS>MOLECULE
CHEMBL202010__1
   34    37     0     0     0
SMALL
USER_CHARGES

@<TRIPOS>ATOM
      1 C1         -0.0166    1.3742    0.0096 C.ar      1 <0>        -0.0785
      2 C2          1.1702    2.0947    0.0021 C.ar      1 <0>        -0.1202
      3 C3          2.3751    1.4532   -0.0128 C.ar      1 <0>        -0.0548
      4 C4          2.4205    0.0539   -0.0208 C.ar      1 <0>         0.0471
      5 C5          1.2173   -0.6759   -0.0132 C.ar      1 <0>         0.0701
      6 C6          0.0021   -0.0041    0.0020 C.ar      1 <0>        -0.1151
      7 N1          1.5749   -2.0080   -0.0238 N.pl3     1 <0>        -0.5635
      8 H1          0.9711   -2.7671   -0.0221 H         1 <0>         0.4349
      9 C7          2.9444   -2.0566   -0.0372 C.2       1 <0>         0.3117
     10 N2          3.4300   -0.8390   -0.0353 N.2       1 <0>        -0.4526
     11 C8          3.7506   -3.2928   -0.0515 C.2       1 <0>         0.3884
     12 N3          5.1206   -3.3412   -0.0594 N.pl3     1 <0>        -0.5577
     13 H2          5.7238   -2.5816   -0.0564 H         1 <0>         0.4464
     14 C9          5.4799   -4.6706   -0.0721 C.ar      1 <0>         0.1017
     15 C10         6.7011   -5.3359   -0.0849 C.ar      1 <0>        -0.0836
     16 C11         6.7388   -6.6998   -0.0972 C.ar      1 <0>        -0.0642
     17 C12         5.5515   -7.4440   -0.0967 C.ar      1 <0>        -0.1635
     18 C13         4.3209   -6.7986   -0.0836 C.ar      1 <0>         0.0176
     19 C14         4.2760   -5.4023   -0.0714 C.ar      1 <0>         0.0502
     20 N4          3.2650   -4.5100   -0.0530 N.2       1 <0>        -0.4633
     21 C15         5.6083   -8.9211   -0.1106 C.cat     1 <0>         0.6086
     22 N5          6.6287   -9.5429   -0.6995 N.pl3     1 <0>        -0.7583
     23 N6          4.6391   -9.6304    0.4657 N.pl3     1 <0>        -0.7600
     24 H3         -0.9613    1.8974    0.0260 H         1 <0>         0.1398
     25 H4          1.1398    3.1743    0.0079 H         1 <0>         0.1388
     26 H5          3.2919    2.0242   -0.0189 H         1 <0>         0.1366
     27 H6         -0.9244   -0.5590    0.0083 H         1 <0>         0.1319
     28 H7          7.6220   -4.7716   -0.0853 H         1 <0>         0.1518
     29 H8          7.6909   -7.2095   -0.1077 H         1 <0>         0.1487
     30 H9          3.4059   -7.3723   -0.0829 H         1 <0>         0.1507
     31 H10         7.3344   -9.0265   -1.1191 H         1 <0>         0.4467
     32 H11         3.8961   -9.1776    0.8945 H         1 <0>         0.4464
     33 H12         4.6764  -10.5996    0.4566 H         1 <0>         0.4336
     34 H13         6.6659  -10.5122   -0.7086 H         1 <0>         0.4335
@<TRIPOS>BOND
     1    1    6 ar
     2    1    2 ar
     3    1   24 1
     4    2    3 ar
     5    2   25 1
     6    3    4 ar
     7    3   26 1
     8    4   10 1
     9    4    5 ar
    10    5    6 ar
    11    5    7 1
    12    6   27 1
    13    7    8 1
    14    7    9 1
    15    9   10 2
    16    9   11 1
    17   11   20 2
    18   11   12 1
    19   12   13 1
    20   12   14 1
    21   14   19 ar
    22   14   15 ar
    23   15   16 ar
    24   15   28 1
    25   16   17 ar
    26   16   29 1
    27   17   18 ar
    28   17   21 1
    29   18   19 ar
    30   18   30 1
    31   19   20 1
    32   21   22 2
    33   21   23 1
    34   22   31 1
    35   22   34 1
    36   23   32 1
    37   23   33 1
@<TRIPOS>MOLECULE
CHEMBL373187
   73    76     0     0     0
SMALL
USER_CHARGES

@<TRIPOS>ATOM
      1 C1          2.5111    0.4713   -1.3489 C.3       1 <0>        -0.1716
      2 C2          1.0630    0.8204   -0.9993 C.3       1 <0>         0.1346
      3 C3          1.0025    1.3796    0.4236 C.3       1 <0>        -0.1202
      4 C4         -0.4229    1.8442    0.7288 C.3       1 <0>        -0.0817
      5 C5         -0.4825    2.3950    2.1302 C.ar      1 <0>        -0.0813
      6 C6         -0.7703    1.5564    3.1908 C.ar      1 <0>        -0.1186
      7 C7         -0.8250    2.0616    4.4763 C.ar      1 <0>        -0.1187
      8 C8         -0.5915    3.4054    4.7014 C.ar      1 <0>        -0.1255
      9 C9         -0.3028    4.2438    3.6409 C.ar      1 <0>        -0.1172
     10 C10        -0.2438    3.7378    2.3559 C.ar      1 <0>        -0.1173
     11 N1          0.2355   -0.3854   -1.0857 N.pl3     1 <0>        -0.7071
     12 C11        -0.4599   -0.6716   -2.2612 C.ar      1 <0>         0.2608
     13 C12        -1.5220   -1.5753   -2.2607 C.ar      1 <0>        -0.0450
     14 C13        -2.1886   -1.8339   -3.4481 C.ar      1 <0>         0.3381
     15 N2         -1.8273   -1.2349   -4.5729 N.ar      1 <0>        -0.5773
     16 C14        -0.8240   -0.3713   -4.6118 C.ar      1 <0>         0.3665
     17 C15        -0.1135   -0.0567   -3.4636 C.ar      1 <0>        -0.0292
     18 F1          0.9047    0.8299   -3.5102 F         1 <0>        -0.0995
     19 O1         -0.4906    0.2169   -5.7892 O.3       1 <0>        -0.1607
     20 C16        -1.2180   -0.1023   -6.8892 C.ar      1 <0>         0.0544
     21 C17        -2.5619   -0.4227   -6.7654 C.ar      1 <0>        -0.1183
     22 C18        -3.3033   -0.7477   -7.8827 C.ar      1 <0>        -0.1974
     23 C19        -2.7105   -0.7574   -9.1419 C.ar      1 <0>         0.1848
     24 C20        -1.3712   -0.4407   -9.2824 C.ar      1 <0>        -0.1336
     25 C21        -0.6143   -0.1036   -8.1554 C.ar      1 <0>        -0.0766
     26 C22         0.8094    0.2414   -8.2965 C.2       1 <0>         0.5136
     27 O2          1.3327    0.2393   -9.4024 O.co2     1 <0>        -0.6815
     28 O3          1.4697    0.5305   -7.3080 O.co2     1 <0>        -0.6595
     29 N3         -3.4712   -1.0889  -10.2689 N.pl3     1 <0>        -0.6416
     30 C23        -4.8895   -1.4251  -10.1223 C.3       1 <0>         0.0964
     31 C24        -2.8491   -1.0997  -11.5952 C.3       1 <0>         0.0953
     32 O4         -3.2241   -2.7121   -3.4586 O.3       1 <0>        -0.2183
     33 C25        -3.8546   -2.9410   -4.6405 C.ar      1 <0>         0.1034
     34 C26        -3.1668   -2.7821   -5.8363 C.ar      1 <0>        -0.0716
     35 C27        -3.8034   -3.0136   -7.0412 C.ar      1 <0>        -0.0758
     36 C28        -5.1271   -3.4043   -7.0634 C.ar      1 <0>        -0.0912
     37 C29        -5.8260   -3.5670   -5.8670 C.ar      1 <0>        -0.1474
     38 C30        -5.1813   -3.3383   -4.6517 C.ar      1 <0>        -0.0827
     39 C31        -7.2453   -3.9853   -5.8873 C.cat     1 <0>         0.6096
     40 N4         -8.0236   -3.6499   -6.9142 N.pl3     1 <0>        -0.7612
     41 N5         -7.7440   -4.6971   -4.8787 N.pl3     1 <0>        -0.7617
     42 F2         -1.8961   -2.1910   -1.1178 F         1 <0>        -0.1204
     43 H1          2.8839   -0.2761   -0.6486 H         1 <0>         0.0566
     44 H2          2.5542    0.0729   -2.3626 H         1 <0>         0.0727
     45 H3          3.1268    1.3685   -1.2846 H         1 <0>         0.0716
     46 H4          0.6902    1.5679   -1.6996 H         1 <0>         0.1025
     47 H5          1.2909    0.6029    1.1318 H         1 <0>         0.0710
     48 H6          1.6865    2.2237    0.5116 H         1 <0>         0.0858
     49 H7         -0.7114    2.6210    0.0205 H         1 <0>         0.0740
     50 H8         -1.1069    1.0001    0.6407 H         1 <0>         0.0729
     51 H9         -0.9528    0.5065    3.0150 H         1 <0>         0.1193
     52 H10        -1.0506    1.4065    5.3048 H         1 <0>         0.1206
     53 H11        -0.6349    3.8002    5.7057 H         1 <0>         0.1206
     54 H12        -0.1206    5.2937    3.8167 H         1 <0>         0.1218
     55 H13        -0.0146    4.3921    1.5278 H         1 <0>         0.1222
     56 H14         0.1710   -0.9848   -0.3258 H         1 <0>         0.4114
     57 H15        -3.0291   -0.4182   -5.7917 H         1 <0>         0.1432
     58 H16        -4.3492   -0.9962   -7.7796 H         1 <0>         0.1186
     59 H17        -0.9124   -0.4490  -10.2601 H         1 <0>         0.1390
     60 H18        -5.4887   -0.5188  -10.2100 H         1 <0>         0.0431
     61 H19        -5.1787   -2.1288  -10.9028 H         1 <0>         0.0628
     62 H20        -5.0565   -1.8778   -9.1449 H         1 <0>         0.0562
     63 H21        -2.0321   -1.8212  -11.6075 H         1 <0>         0.0573
     64 H22        -3.5918   -1.3791  -12.3426 H         1 <0>         0.0684
     65 H23        -2.4606   -0.1070  -11.8224 H         1 <0>         0.0576
     66 H24        -2.1311   -2.4762   -5.8249 H         1 <0>         0.1889
     67 H25        -3.2636   -2.8881   -7.9682 H         1 <0>         0.1581
     68 H26        -5.6216   -3.5837   -8.0066 H         1 <0>         0.1374
     69 H27        -5.7163   -3.4663   -3.7223 H         1 <0>         0.1444
     70 H28        -8.9539   -3.9241   -6.9275 H         1 <0>         0.4309
     71 H29        -7.1770   -4.9415   -4.1306 H         1 <0>         0.4466
     72 H30        -8.6744   -4.9713   -4.8920 H         1 <0>         0.4304
     73 H31        -7.6602   -3.1313   -7.6490 H         1 <0>         0.4461
@<TRIPOS>BOND
     1    1    2 1
     2    1   43 1
     3    1   44 1
     4    1   45 1
     5    2    3 1
     6    2   11 1
     7    2   46 1
     8    3    4 1
     9    3   47 1
    10    3   48 1
    11    4    5 1
    12    4   49 1
    13    4   50 1
    14    5   10 ar
    15    5    6 ar
    16    6    7 ar
    17    6   51 1
    18    7    8 ar
    19    7   52 1
    20    8    9 ar
    21    8   53 1
    22    9   10 ar
    23    9   54 1
    24   10   55 1
    25   11   12 1
    26   11   56 1
    27   12   17 ar
    28   12   13 ar
    29   13   14 ar
    30   13   42 1
    31   14   15 ar
    32   14   32 1
    33   15   16 ar
    34   16   17 ar
    35   16   19 1
    36   17   18 1
    37   19   20 1
    38   20   25 ar
    39   20   21 ar
    40   21   22 ar
    41   21   57 1
    42   22   23 ar
    43   22   58 1
    44   23   24 ar
    45   23   29 1
    46   24   25 ar
    47   24   59 1
    48   25   26 1
    49   26   27 2
    50   26   28 1
    51   29   30 1
    52   29   31 1
    53   30   60 1
    54   30   61 1
    55   30   62 1
    56   31   63 1
    57   31   64 1
    58   31   65 1
    59   32   33 1
    60   33   38 ar
    61   33   34 ar
    62   34   35 ar
    63   34   66 1
    64   35   36 ar
    65   35   67 1
    66   36   37 ar
    67   36   68 1
    68   37   38 ar
    69   37   39 1
    70   38   69 1
    71   39   40 2
    72   39   41 1
    73   40   70 1
    74   40   73 1
    75   41   71 1
    76   41   72 1
@<TRIPOS>MOLECULE
CHEMBL373187__1
   73    76     0     0     0
SMALL
USER_CHARGES

@<TRIPOS>ATOM
      1 C1         -1.2976   -1.6329   -0.9285 C.3       1 <0>        -0.1773
      2 C2         -0.0745   -2.2758   -0.2715 C.3       1 <0>         0.1415
      3 C3          1.0999   -2.2574   -1.2519 C.3       1 <0>        -0.1202
      4 C4          2.2846   -3.0100   -0.6429 C.3       1 <0>        -0.0840
      5 C5          3.4414   -2.9919   -1.6086 C.ar      1 <0>        -0.0822
      6 C6          3.5746   -3.9986   -2.5466 C.ar      1 <0>        -0.1185
      7 C7          4.6356   -3.9819   -3.4324 C.ar      1 <0>        -0.1189
      8 C8          5.5632   -2.9583   -3.3806 C.ar      1 <0>        -0.1249
      9 C9          5.4295   -1.9511   -2.4433 C.ar      1 <0>        -0.1168
     10 C10         4.3661   -1.9655   -1.5602 C.ar      1 <0>        -0.1163
     11 N1          0.2838   -1.5242    0.9339 N.pl3     1 <0>        -0.7081
     12 C11        -0.3485   -1.8060    2.1456 C.ar      1 <0>         0.2618
     13 C12        -1.5173   -2.5658    2.1816 C.ar      1 <0>        -0.0470
     14 C13        -2.1166   -2.8247    3.4043 C.ar      1 <0>         0.3404
     15 N2         -1.5923   -2.3597    4.5283 N.ar      1 <0>        -0.5729
     16 C14        -0.4839   -1.6349    4.5332 C.ar      1 <0>         0.3679
     17 C15         0.1761   -1.3396    3.3502 C.ar      1 <0>        -0.0313
     18 F1          1.3097   -0.6048    3.3641 F         1 <0>        -0.1055
     19 O1          0.0150   -1.1801    5.7112 O.3       1 <0>        -0.1641
     20 C16        -0.7225   -1.3757    6.8332 C.ar      1 <0>         0.0507
     21 C17        -2.1034   -1.2512    6.7883 C.ar      1 <0>        -0.1000
     22 C18        -2.8552   -1.4496    7.9281 C.ar      1 <0>        -0.1889
     23 C19        -2.2360   -1.7754    9.1312 C.ar      1 <0>         0.1900
     24 C20        -0.8599   -1.9029    9.1929 C.ar      1 <0>        -0.1387
     25 C21        -0.0912   -1.7099    8.0404 C.ar      1 <0>        -0.0762
     26 C22         1.3728   -1.8505    8.0954 C.2       1 <0>         0.5137
     27 O2          1.9201   -2.1421    9.1500 O.co2     1 <0>        -0.6820
     28 O3          2.0424   -1.6756    7.0866 O.co2     1 <0>        -0.6603
     29 N3         -3.0076   -1.9742   10.2817 N.pl3     1 <0>        -0.6414
     30 C23        -4.4650   -1.8392   10.2187 C.3       1 <0>         0.1018
     31 C24        -2.3579   -2.3173   11.5492 C.3       1 <0>         0.0956
     32 O4         -3.2548   -3.5634    3.4504 O.3       1 <0>        -0.2173
     33 C25        -3.7390   -3.9138    4.6709 C.ar      1 <0>         0.1072
     34 C26        -2.9102   -3.8731    5.7843 C.ar      1 <0>        -0.0831
     35 C27        -3.3976   -4.2285    7.0280 C.ar      1 <0>        -0.0770
     36 C28        -4.7115   -4.6262    7.1711 C.ar      1 <0>        -0.0776
     37 C29        -5.5518   -4.6698    6.0583 C.ar      1 <0>        -0.1497
     38 C30        -5.0605   -4.3060    4.8048 C.ar      1 <0>        -0.0841
     39 C31        -6.9609   -5.0962    6.2082 C.cat     1 <0>         0.6102
     40 N4         -7.2957   -5.9657    7.1593 N.pl3     1 <0>        -0.7611
     41 N5         -7.8939   -4.6103    5.3920 N.pl3     1 <0>        -0.7620
     42 F2         -2.0587   -3.0429    1.0395 F         1 <0>        -0.1138
     43 H1         -1.0656   -0.6026   -1.1983 H         1 <0>         0.0568
     44 H2         -1.5642   -2.1921   -1.8254 H         1 <0>         0.0674
     45 H3         -2.1342   -1.6461   -0.2300 H         1 <0>         0.0753
     46 H4         -0.3065   -3.3061   -0.0017 H         1 <0>         0.0928
     47 H5          0.8032   -2.7395   -2.1834 H         1 <0>         0.0846
     48 H6          1.3893   -1.2259   -1.4529 H         1 <0>         0.0730
     49 H7          2.5813   -2.5279    0.2886 H         1 <0>         0.0769
     50 H8          1.9952   -4.0415   -0.4419 H         1 <0>         0.0739
     51 H9          2.8498   -4.7983   -2.5870 H         1 <0>         0.1200
     52 H10         4.7401   -4.7688   -4.1647 H         1 <0>         0.1208
     53 H11         6.3926   -2.9457   -4.0723 H         1 <0>         0.1207
     54 H12         6.1545   -1.1516   -2.4026 H         1 <0>         0.1221
     55 H13         4.2596   -1.1766   -0.8304 H         1 <0>         0.1219
     56 H14         0.9606   -0.8307    0.8898 H         1 <0>         0.4151
     57 H15        -2.5913   -0.9979    5.8587 H         1 <0>         0.1240
     58 H16        -3.9299   -1.3512    7.8865 H         1 <0>         0.1155
     59 H17        -0.3808   -2.1554   10.1273 H         1 <0>         0.1377
     60 H18        -4.9091   -2.8044    9.9751 H         1 <0>         0.0344
     61 H19        -4.8406   -1.4997   11.1840 H         1 <0>         0.0620
     62 H20        -4.7297   -1.1131    9.4500 H         1 <0>         0.0633
     63 H21        -1.6666   -1.5227   11.8298 H         1 <0>         0.0569
     64 H22        -3.1142   -2.4319   12.3258 H         1 <0>         0.0677
     65 H23        -1.8097   -3.2524   11.4350 H         1 <0>         0.0561
     66 H24        -1.8811   -3.5630    5.6780 H         1 <0>         0.1987
     67 H25        -2.7482   -4.1953    7.8903 H         1 <0>         0.1494
     68 H26        -5.0889   -4.9040    8.1442 H         1 <0>         0.1361
     69 H27        -5.7074   -4.3342    3.9404 H         1 <0>         0.1437
     70 H28        -8.2193   -6.2452    7.2576 H         1 <0>         0.4304
     71 H29        -7.6500   -3.9769    4.6992 H         1 <0>         0.4465
     72 H30        -8.8175   -4.8898    5.4903 H         1 <0>         0.4301
     73 H31        -6.6160   -6.3197    7.7539 H         1 <0>         0.4467
@<TRIPOS>BOND
     1    1    2 1
     2    1   43 1
     3    1   44 1
     4    1   45 1
     5    2    3 1
     6    2   11 1
     7    2   46 1
     8    3    4 1
     9    3   47 1
    10    3   48 1
    11    4    5 1
    12    4   49 1
    13    4   50 1
    14    5   10 ar
    15    5    6 ar
    16    6    7 ar
    17    6   51 1
    18    7    8 ar
    19    7   52 1
    20    8    9 ar
    21    8   53 1
    22    9   10 ar
    23    9   54 1
    24   10   55 1
    25   11   12 1
    26   11   56 1
    27   12   17 ar
    28   12   13 ar
    29   13   14 ar
    30   13   42 1
    31   14   15 ar
    32   14   32 1
    33   15   16 ar
    34   16   17 ar
    35   16   19 1
    36   17   18 1
    37   19   20 1
    38   20   25 ar
    39   20   21 ar
    40   21   22 ar
    41   21   57 1
    42   22   23 ar
    43   22   58 1
    44   23   24 ar
    45   23   29 1
    46   24   25 ar
    47   24   59 1
    48   25   26 1
    49   26   27 2
    50   26   28 1
    51   29   30 1
    52   29   31 1
    53   30   60 1
    54   30   61 1
    55   30   62 1
    56   31   63 1
    57   31   64 1
    58   31   65 1
    59   32   33 1
    60   33   38 ar
    61   33   34 ar
    62   34   35 ar
    63   34   66 1
    64   35   36 ar
    65   35   67 1
    66   36   37 ar
    67   36   68 1
    68   37   38 ar
    69   37   39 1
    70   38   69 1
    71   39   40 2
    72   39   41 1
    73   40   70 1
    74   40   73 1
    75   41   71 1
    76   41   72 1
@<TRIPOS>MOLECULE
CHEMBL123336
   58    60     0     0     0
SMALL
USER_CHARGES

@<TRIPOS>ATOM
      1 C1         -0.2970    1.1846   -1.1379 C.3       1 <0>        -0.1604
      2 C2         -0.4200   -0.3337   -1.2809 C.3       1 <0>         0.1886
      3 C3          0.8340   -0.9903   -0.7637 C.ar      1 <0>        -0.1153
      4 C4          1.9661   -1.0360   -1.5564 C.ar      1 <0>        -0.0935
      5 C5          3.1169   -1.6370   -1.0854 C.ar      1 <0>        -0.1164
      6 C6          3.1365   -2.1953    0.1860 C.ar      1 <0>         0.1535
      7 C7          1.9980   -2.1473    0.9798 C.ar      1 <0>        -0.1400
      8 C8          0.8518   -1.5406    0.5047 C.ar      1 <0>        -0.0834
      9 N1          4.3007   -2.8053    0.6661 N.am      1 <0>        -0.6728
     10 C9          5.5088   -2.3276    0.3074 C.2       1 <0>         0.5452
     11 O1          5.5881   -1.3162   -0.3574 O.2       1 <0>        -0.5166
     12 C10         6.7612   -3.0500    0.7324 C.3       1 <0>        -0.2016
     13 C11         7.6633   -2.3576    1.7560 C.3       1 <0>        -0.1498
     14 C12         8.1019   -2.4576    0.2936 C.3       1 <0>        -0.1436
     15 N2         -0.6047   -0.6779   -2.6929 N.am      1 <0>        -0.7155
     16 C13        -1.8380   -0.6565   -3.2360 C.2       1 <0>         0.5114
     17 O2         -2.7950   -0.3523   -2.5558 O.2       1 <0>        -0.5345
     18 C14        -2.0280   -1.0105   -4.6884 C.3       1 <0>         0.1152
     19 N3         -3.4485   -0.9126   -5.0332 N.am      1 <0>        -0.7195
     20 C15        -3.8579   -1.1859   -6.2878 C.2       1 <0>         0.7093
     21 O3         -3.0483   -1.5138   -7.1335 O.2       1 <0>        -0.5643
     22 N4         -5.1647   -1.0958   -6.6050 N.am      1 <0>        -0.6836
     23 C16        -5.6035   -1.4837   -7.8709 C.ar      1 <0>         0.2507
     24 C17        -4.9815   -2.5408   -8.5273 C.ar      1 <0>        -0.1253
     25 C18        -5.4120   -2.9258   -9.7772 C.ar      1 <0>        -0.0308
     26 C19        -6.4748   -2.2540  -10.3858 C.ar      1 <0>        -0.1870
     27 C20        -7.0976   -1.1933   -9.7239 C.ar      1 <0>        -0.0286
     28 C21        -6.6658   -0.8164   -8.4719 C.ar      1 <0>        -0.1509
     29 C22        -6.9389   -2.6643  -11.7270 C.cat     1 <0>         0.6034
     30 N5         -7.9529   -2.0225  -12.3063 N.pl3     1 <0>        -0.7665
     31 N6         -6.3436   -3.6761  -12.3575 N.pl3     1 <0>        -0.7655
     32 H1          0.5603    1.5353   -1.7125 H         1 <0>         0.0616
     33 H2         -1.2040    1.6595   -1.5120 H         1 <0>         0.0647
     34 H3         -0.1596    1.4406   -0.0874 H         1 <0>         0.0726
     35 H4         -1.2773   -0.6845   -0.7063 H         1 <0>         0.1000
     36 H5          1.9502   -0.6017   -2.5451 H         1 <0>         0.1238
     37 H6          4.0006   -1.6730   -1.7053 H         1 <0>         0.1369
     38 H7          2.0099   -2.5809    1.9689 H         1 <0>         0.1305
     39 H8         -0.0327   -1.4994    1.1231 H         1 <0>         0.1306
     40 H9          4.2382   -3.5720    1.2570 H         1 <0>         0.4143
     41 H10         6.6833   -4.1360    0.7829 H         1 <0>         0.1288
     42 H11         7.3509   -1.3796    2.1220 H         1 <0>         0.1012
     43 H12         8.1790   -2.9881    2.4803 H         1 <0>         0.1091
     44 H13         8.9061   -3.1538    0.0559 H         1 <0>         0.1076
     45 H14         8.0780   -1.5453   -0.3024 H         1 <0>         0.1096
     46 H15         0.1606   -0.9212   -3.2369 H         1 <0>         0.4047
     47 H16        -1.4553   -0.3208   -5.3084 H         1 <0>         0.1063
     48 H17        -1.6813   -2.0291   -4.8625 H         1 <0>         0.1063
     49 H18        -4.0944   -0.6510   -4.3584 H         1 <0>         0.4147
     50 H19        -5.8001   -0.7612   -5.9529 H         1 <0>         0.4206
     51 H20        -4.1598   -3.0598   -8.0562 H         1 <0>         0.1594
     52 H21        -4.9283   -3.7461  -10.2867 H         1 <0>         0.1402
     53 H22        -7.9196   -0.6720  -10.1919 H         1 <0>         0.1414
     54 H23        -7.1495    0.0010   -7.9579 H         1 <0>         0.1517
     55 H24        -8.2576   -2.2919  -13.1870 H         1 <0>         0.4323
     56 H25        -5.6055   -4.1432  -11.9357 H         1 <0>         0.4437
     57 H26        -6.6483   -3.9454  -13.2381 H         1 <0>         0.4323
     58 H27        -8.3863   -1.2860  -11.8474 H         1 <0>         0.4431
@<TRIPOS>BOND
     1    1    2 1
     2    1   32 1
     3    1   33 1
     4    1   34 1
     5    2    3 1
     6    2   15 1
     7    2   35 1
     8    3    8 ar
     9    3    4 ar
    10    4    5 ar
    11    4   36 1
    12    5    6 ar
    13    5   37 1
    14    6    7 ar
    15    6    9 1
    16    7    8 ar
    17    7   38 1
    18    8   39 1
    19    9   10 am
    20    9   40 1
    21   10   11 2
    22   10   12 1
    23   12   14 1
    24   12   13 1
    25   12   41 1
    26   13   14 1
    27   13   42 1
    28   13   43 1
    29   14   44 1
    30   14   45 1
    31   15   16 am
    32   15   46 1
    33   16   17 2
    34   16   18 1
    35   18   19 1
    36   18   47 1
    37   18   48 1
    38   19   20 am
    39   19   49 1
    40   20   21 2
    41   20   22 am
    42   22   23 1
    43   22   50 1
    44   23   28 ar
    45   23   24 ar
    46   24   25 ar
    47   24   51 1
    48   25   26 ar
    49   25   52 1
    50   26   27 ar
    51   26   29 1
    52   27   28 ar
    53   27   53 1
    54   28   54 1
    55   29   30 2
    56   29   31 1
    57   30   55 1
    58   30   58 1
    59   31   56 1
    60   31   57 1
@<TRIPOS>MOLECULE
CHEMBL123336__1
   58    60     0     0     0
SMALL
USER_CHARGES

@<TRIPOS>ATOM
      1 C1         -0.2122    1.3151    0.3675 C.3       1 <0>        -0.1595
      2 C2         -0.4849   -0.0763    0.9424 C.3       1 <0>         0.1883
      3 C3          0.5085   -1.0576    0.3756 C.ar      1 <0>        -0.1152
      4 C4          1.7838   -1.1318    0.9049 C.ar      1 <0>        -0.0936
      5 C5          2.6966   -2.0300    0.3877 C.ar      1 <0>        -0.1162
      6 C6          2.3323   -2.8595   -0.6648 C.ar      1 <0>         0.1534
      7 C7          1.0506   -2.7828   -1.1939 C.ar      1 <0>        -0.1397
      8 C8          0.1410   -1.8858   -0.6690 C.ar      1 <0>        -0.0835
      9 N1          3.2548   -3.7703   -1.1914 N.am      1 <0>        -0.6724
     10 C9          4.1641   -4.3514   -0.3840 C.2       1 <0>         0.5458
     11 O1          4.1263   -4.1548    0.8123 O.2       1 <0>        -0.5183
     12 C10         5.2278   -5.2453   -0.9675 C.3       1 <0>        -0.2015
     13 C11         5.1480   -6.7395   -0.6483 C.3       1 <0>        -0.1499
     14 C12         6.2307   -5.8753    0.0012 C.3       1 <0>        -0.1435
     15 N2         -0.3539   -0.0362    2.4010 N.am      1 <0>        -0.7157
     16 C13        -1.4005    0.3416    3.1614 C.2       1 <0>         0.5117
     17 O2         -2.4508    0.6484    2.6383 O.2       1 <0>        -0.5347
     18 C14        -1.2658    0.3828    4.6618 C.3       1 <0>         0.1149
     19 N3         -2.5319    0.8214    5.2540 N.am      1 <0>        -0.7194
     20 C15        -2.6470    0.9334    6.5922 C.2       1 <0>         0.7092
     21 O3         -1.7000    0.6705    7.3079 O.2       1 <0>        -0.5640
     22 N4         -3.8118    1.3370    7.1369 N.am      1 <0>        -0.6835
     23 C16        -3.8992    1.5587    8.5112 C.ar      1 <0>         0.2508
     24 C17        -2.8013    2.0571    9.2051 C.ar      1 <0>        -0.1253
     25 C18        -2.8842    2.2766   10.5618 C.ar      1 <0>        -0.0307
     26 C19        -4.0726    1.9989   11.2414 C.ar      1 <0>        -0.1871
     27 C20        -5.1735    1.4991   10.5418 C.ar      1 <0>        -0.0286
     28 C21        -5.0859    1.2865    9.1842 C.ar      1 <0>        -0.1510
     29 C22        -4.1648    2.2329   12.6972 C.cat     1 <0>         0.6036
     30 N5         -5.2991    1.9675   13.3441 N.pl3     1 <0>        -0.7665
     31 N6         -3.1137    2.7094   13.3633 N.pl3     1 <0>        -0.7655
     32 H1          0.7980    1.6264    0.6331 H         1 <0>         0.0613
     33 H2         -0.3097    1.2853   -0.7178 H         1 <0>         0.0726
     34 H3         -0.9307    2.0249    0.7774 H         1 <0>         0.0646
     35 H4         -1.4952   -0.3876    0.6767 H         1 <0>         0.0998
     36 H5          2.0665   -0.4864    1.7235 H         1 <0>         0.1237
     37 H6          3.6927   -2.0870    0.8011 H         1 <0>         0.1369
     38 H7          0.7644   -3.4263   -2.0127 H         1 <0>         0.1305
     39 H8         -0.8572   -1.8285   -1.0773 H         1 <0>         0.1307
     40 H9          3.2399   -3.9834   -2.1376 H         1 <0>         0.4147
     41 H10         5.5924   -4.9600   -1.9543 H         1 <0>         0.1293
     42 H11         4.3262   -7.0760   -0.0162 H         1 <0>         0.1006
     43 H12         5.4600   -7.4375   -1.4252 H         1 <0>         0.1091
     44 H13         7.2549   -6.0047   -0.3484 H         1 <0>         0.1078
     45 H14         6.1211   -5.6431    1.0605 H         1 <0>         0.1093
     46 H15         0.4861   -0.2816    2.8194 H         1 <0>         0.4050
     47 H16        -1.0170   -0.6119    5.0317 H         1 <0>         0.1064
     48 H17        -0.4750    1.0809    4.9366 H         1 <0>         0.1065
     49 H18        -3.2875    1.0312    4.6830 H         1 <0>         0.4146
     50 H19        -4.5894    1.4732    6.5733 H         1 <0>         0.4206
     51 H20        -1.8827    2.2716    8.6791 H         1 <0>         0.1594
     52 H21        -2.0313    2.6628   11.1001 H         1 <0>         0.1403
     53 H22        -6.0936    1.2834   11.0645 H         1 <0>         0.1414
     54 H23        -5.9380    0.9039    8.6420 H         1 <0>         0.1516
     55 H24        -5.3597    2.1212   14.2999 H         1 <0>         0.4322
     56 H25        -2.2880    2.9025   12.8924 H         1 <0>         0.4437
     57 H26        -3.1742    2.8630   14.3191 H         1 <0>         0.4323
     58 H27        -6.0643    1.6207   12.8592 H         1 <0>         0.4431
@<TRIPOS>BOND
     1    1    2 1
     2    1   32 1
     3    1   33 1
     4    1   34 1
     5    2    3 1
     6    2   15 1
     7    2   35 1
     8    3    8 ar
     9    3    4 ar
    10    4    5 ar
    11    4   36 1
    12    5    6 ar
    13    5   37 1
    14    6    7 ar
    15    6    9 1
    16    7    8 ar
    17    7   38 1
    18    8   39 1
    19    9   10 am
    20    9   40 1
    21   10   11 2
    22   10   12 1
    23   12   14 1
    24   12   13 1
    25   12   41 1
    26   13   14 1
    27   13   42 1
    28   13   43 1
    29   14   44 1
    30   14   45 1
    31   15   16 am
    32   15   46 1
    33   16   17 2
    34   16   18 1
    35   18   19 1
    36   18   47 1
    37   18   48 1
    38   19   20 am
    39   19   49 1
    40   20   21 2
    41   20   22 am
    42   22   23 1
    43   22   50 1
    44   23   28 ar
    45   23   24 ar
    46   24   25 ar
    47   24   51 1
    48   25   26 ar
    49   25   52 1
    50   26   27 ar
    51   26   29 1
    52   27   28 ar
    53   27   53 1
    54   28   54 1
    55   29   30 2
    56   29   31 1
    57   30   55 1
    58   30   58 1
    59   31   56 1
    60   31   57 1
@<TRIPOS>MOLECULE
CHEMBL46148
   37    40     0     0     0
SMALL
USER_CHARGES

@<TRIPOS>ATOM
      1 C1         -0.0166    1.3743    0.0096 C.ar      1 <0>        -0.0924
      2 C2          1.1700    2.0939    0.0021 C.ar      1 <0>        -0.1233
      3 C3          2.3749    1.4505   -0.0133 C.ar      1 <0>        -0.0637
      4 C4          2.4184    0.0538   -0.0212 C.ar      1 <0>         0.0455
      5 C5          1.2173   -0.6752   -0.0132 C.ar      1 <0>         0.0565
      6 C6          0.0021   -0.0041    0.0020 C.ar      1 <0>        -0.1122
      7 N1          1.5799   -2.0072   -0.0240 N.pl3     1 <0>        -0.5880
      8 H1          0.9771   -2.7672   -0.0224 H         1 <0>         0.4258
      9 C7          2.9393   -2.0564   -0.0378 C.2       1 <0>         0.2793
     10 N2          3.4303   -0.8515   -0.0362 N.2       1 <0>        -0.4792
     11 C8          3.7573   -3.3220   -0.0522 C.3       1 <0>         0.0307
     12 C9          4.7028   -3.2956   -1.2255 C.2       1 <0>         0.3430
     13 N3          4.3478   -3.1142   -2.4651 N.2       1 <0>        -0.4781
     14 C10         5.4429   -3.1475   -3.2636 C.ar      1 <0>         0.1132
     15 C11         5.6314   -3.0120   -4.6442 C.ar      1 <0>        -0.0504
     16 C12         6.8839   -3.0942   -5.1734 C.ar      1 <0>        -0.0841
     17 C13         7.9929   -3.3148   -4.3461 C.ar      1 <0>        -0.1522
     18 C14         7.8230   -3.4518   -2.9704 C.ar      1 <0>        -0.0260
     19 C15         6.5524   -3.3686   -2.4270 C.ar      1 <0>         0.0354
     20 N4          6.0500   -3.4520   -1.1426 N.pl3     1 <0>        -0.5811
     21 C16         9.3455   -3.4027   -4.9343 C.cat     1 <0>         0.6080
     22 N5          9.5042   -3.8647   -6.1740 N.pl3     1 <0>        -0.7581
     23 N6         10.4066   -3.0200   -4.2250 N.pl3     1 <0>        -0.7625
     24 H2         -0.9611    1.8978    0.0260 H         1 <0>         0.1350
     25 H3          1.1406    3.1734    0.0082 H         1 <0>         0.1333
     26 H4          3.2924    2.0203   -0.0197 H         1 <0>         0.1291
     27 H5         -0.9243   -0.5593    0.0083 H         1 <0>         0.1271
     28 H6          4.3285   -3.3960    0.8731 H         1 <0>         0.1272
     29 H7          3.0939   -4.1824   -0.1395 H         1 <0>         0.1302
     30 H8          4.7829   -2.8425   -5.2904 H         1 <0>         0.1530
     31 H9          7.0231   -2.9889   -6.2392 H         1 <0>         0.1451
     32 H10         8.6772   -3.6215   -2.3315 H         1 <0>         0.1411
     33 H11         8.7318   -4.1433   -6.6903 H         1 <0>         0.4472
     34 H12        10.2911   -2.6836   -3.3226 H         1 <0>         0.4449
     35 H13        11.2946   -3.0777   -4.6112 H         1 <0>         0.4329
     36 H14        10.3922   -3.9224   -6.5601 H         1 <0>         0.4330
     37 H15         6.5633   -3.5976   -0.3325 H         1 <0>         0.4348
@<TRIPOS>BOND
     1    1    6 ar
     2    1    2 ar
     3    1   24 1
     4    2    3 ar
     5    2   25 1
     6    3    4 ar
     7    3   26 1
     8    4   10 1
     9    4    5 ar
    10    5    6 ar
    11    5    7 1
    12    6   27 1
    13    7    8 1
    14    7    9 1
    15    9   10 2
    16    9   11 1
    17   11   12 1
    18   11   28 1
    19   11   29 1
    20   12   20 1
    21   12   13 2
    22   13   14 1
    23   14   19 ar
    24   14   15 ar
    25   15   16 ar
    26   15   30 1
    27   16   17 ar
    28   16   31 1
    29   17   18 ar
    30   17   21 1
    31   18   19 ar
    32   18   32 1
    33   19   20 1
    34   20   37 1
    35   21   22 2
    36   21   23 1
    37   22   33 1
    38   22   36 1
    39   23   34 1
    40   23   35 1
@<TRIPOS>MOLECULE
CHEMBL46148__1
   37    40     0     0     0
SMALL
USER_CHARGES

@<TRIPOS>ATOM
      1 C1         -0.0166    1.3743    0.0096 C.ar      1 <0>        -0.0929
      2 C2          1.1700    2.0939    0.0021 C.ar      1 <0>        -0.1237
      3 C3          2.3749    1.4505   -0.0133 C.ar      1 <0>        -0.0637
      4 C4          2.4184    0.0538   -0.0212 C.ar      1 <0>         0.0455
      5 C5          1.2173   -0.6752   -0.0132 C.ar      1 <0>         0.0557
      6 C6          0.0021   -0.0041    0.0020 C.ar      1 <0>        -0.1125
      7 N1          1.5799   -2.0072   -0.0240 N.pl3     1 <0>        -0.5887
      8 H1          0.9771   -2.7672   -0.0224 H         1 <0>         0.4255
      9 C7          2.9393   -2.0564   -0.0378 C.2       1 <0>         0.2804
     10 N2          3.4303   -0.8515   -0.0362 N.2       1 <0>        -0.4787
     11 C8          3.7573   -3.3220   -0.0522 C.3       1 <0>         0.0326
     12 C9          4.7028   -3.2956   -1.2255 C.2       1 <0>         0.3265
     13 N3          6.0515   -3.4575   -1.1433 N.pl3     1 <0>        -0.5793
     14 H2          6.5636   -3.6075   -0.3332 H         1 <0>         0.4368
     15 C10         6.5556   -3.3697   -2.4230 C.ar      1 <0>         0.0986
     16 C11         7.8342   -3.4532   -2.9630 C.ar      1 <0>        -0.0877
     17 C12         8.0196   -3.3213   -4.3085 C.ar      1 <0>        -0.0666
     18 C13         6.9275   -3.1011   -5.1576 C.ar      1 <0>        -0.1678
     19 C14         5.6416   -3.0147   -4.6356 C.ar      1 <0>         0.0145
     20 C15         5.4477   -3.1493   -3.2614 C.ar      1 <0>         0.0464
     21 N4          4.3478   -3.1204   -2.4644 N.2       1 <0>        -0.4677
     22 C16         7.1428   -2.9596   -6.6132 C.cat     1 <0>         0.6088
     23 N5          8.2863   -2.4525   -7.0712 N.pl3     1 <0>        -0.7595
     24 N6          6.1933   -3.3392   -7.4670 N.pl3     1 <0>        -0.7610
     25 H3         -0.9611    1.8978    0.0260 H         1 <0>         0.1348
     26 H4          1.1406    3.1734    0.0082 H         1 <0>         0.1332
     27 H5          3.2924    2.0203   -0.0197 H         1 <0>         0.1292
     28 H6         -0.9243   -0.5593    0.0083 H         1 <0>         0.1267
     29 H7          4.3285   -3.3960    0.8731 H         1 <0>         0.1271
     30 H8          3.0939   -4.1824   -0.1395 H         1 <0>         0.1285
     31 H9          8.6823   -3.6224   -2.3162 H         1 <0>         0.1481
     32 H10         9.0153   -3.3868   -4.7215 H         1 <0>         0.1460
     33 H11         4.7993   -2.8449   -5.2898 H         1 <0>         0.1468
     34 H12         8.9777   -2.1761   -6.4495 H         1 <0>         0.4464
     35 H13         5.3606   -3.7084   -7.1335 H         1 <0>         0.4461
     36 H14         6.3346   -3.2463   -8.4221 H         1 <0>         0.4328
     37 H15         8.4276   -2.3597   -8.0264 H         1 <0>         0.4328
@<TRIPOS>BOND
     1    1    6 ar
     2    1    2 ar
     3    1   25 1
     4    2    3 ar
     5    2   26 1
     6    3    4 ar
     7    3   27 1
     8    4   10 1
     9    4    5 ar
    10    5    6 ar
    11    5    7 1
    12    6   28 1
    13    7    8 1
    14    7    9 1
    15    9   10 2
    16    9   11 1
    17   11   12 1
    18   11   29 1
    19   11   30 1
    20   12   21 2
    21   12   13 1
    22   13   14 1
    23   13   15 1
    24   15   20 ar
    25   15   16 ar
    26   16   17 ar
    27   16   31 1
    28   17   18 ar
    29   17   32 1
    30   18   19 ar
    31   18   22 1
    32   19   20 ar
    33   19   33 1
    34   20   21 1
    35   22   23 2
    36   22   24 1
    37   23   34 1
    38   23   37 1
    39   24   35 1
    40   24   36 1
@<TRIPOS>MOLECULE
CHEMBL193745
   62    65     0     0     0
SMALL
USER_CHARGES

@<TRIPOS>ATOM
      1 C1          1.1345    2.1641    0.4733 C.3       1 <0>        -0.1518
      2 C2          0.5025    0.8173    0.1163 C.3       1 <0>        -0.0965
      3 C3         -1.0126    0.9841   -0.0167 C.3       1 <0>        -0.1509
      4 C4          1.0791    0.3190   -1.2104 C.3       1 <0>        -0.1421
      5 C5          2.5727    0.0333   -1.0421 C.3       1 <0>         0.0868
      6 N1          3.0926   -0.5845   -2.2645 N.am      1 <0>        -0.6026
      7 C6          3.2854    0.2257   -3.4698 C.3       1 <0>         0.1482
      8 C7          4.6777    0.8023   -3.4701 C.ar      1 <0>        -0.0920
      9 C8          4.9085    2.0401   -2.8727 C.ar      1 <0>        -0.0665
     10 C9          6.1541    2.5891   -2.8556 C.ar      1 <0>        -0.1167
     11 C10         7.2267    1.9012   -3.4473 C.ar      1 <0>        -0.0117
     12 C11         8.5254    2.4423   -3.4452 C.ar      1 <0>        -0.0807
     13 C12         9.5463    1.7594   -4.0232 C.ar      1 <0>        -0.0956
     14 C13         9.3262    0.5097   -4.6288 C.ar      1 <0>        -0.1605
     15 C14         8.0602   -0.0495   -4.6468 C.ar      1 <0>        -0.0112
     16 C15         6.9922    0.6416   -4.0548 C.ar      1 <0>        -0.0674
     17 C16         5.6925    0.1041   -4.0487 C.ar      1 <0>        -0.0680
     18 C17        10.4564   -0.2129   -5.2518 C.cat     1 <0>         0.6024
     19 N2         11.4724    0.4679   -5.7791 N.pl3     1 <0>        -0.7590
     20 N3         10.4581   -1.5442   -5.2855 N.pl3     1 <0>        -0.7611
     21 C18         3.3934   -1.8981   -2.2803 C.2       1 <0>         0.5663
     22 O1          3.8889   -2.3963   -3.2723 O.2       1 <0>        -0.5328
     23 C19         3.1211   -2.7329   -1.0917 C.ar      1 <0>        -0.1345
     24 C20         4.0086   -3.7685   -0.7480 C.ar      1 <0>        -0.0753
     25 C21         3.7802   -4.5487    0.3389 C.ar      1 <0>        -0.1063
     26 C22         2.6437   -4.3271    1.1382 C.ar      1 <0>        -0.0335
     27 C23         2.3863   -5.1214    2.2680 C.ar      1 <0>        -0.1120
     28 C24         1.2785   -4.8830    3.0225 C.ar      1 <0>        -0.1015
     29 C25         0.3912   -3.8604    2.6922 C.ar      1 <0>        -0.1125
     30 C26         0.6071   -3.0702    1.6054 C.ar      1 <0>        -0.1010
     31 C27         1.7413   -3.2861    0.8021 C.ar      1 <0>        -0.0617
     32 C28         1.9970   -2.4859   -0.3215 C.ar      1 <0>        -0.0784
     33 H1          2.2139    2.0452    0.5681 H         1 <0>         0.0542
     34 H2          0.9162    2.8875   -0.3122 H         1 <0>         0.0566
     35 H3          0.7237    2.5191    1.4185 H         1 <0>         0.0592
     36 H4          0.7208    0.0938    0.9019 H         1 <0>         0.0737
     37 H5         -1.2308    1.7076   -0.8023 H         1 <0>         0.0568
     38 H6         -1.4628    0.0246   -0.2711 H         1 <0>         0.0558
     39 H7         -1.4234    1.3391    0.9285 H         1 <0>         0.0598
     40 H8          0.5658   -0.5949   -1.5093 H         1 <0>         0.0736
     41 H9          0.9392    1.0815   -1.9766 H         1 <0>         0.0746
     42 H10         3.1023    0.9671   -0.8533 H         1 <0>         0.0798
     43 H11         2.7205   -0.6445   -0.2013 H         1 <0>         0.1006
     44 H12         3.1506   -0.3989   -4.3528 H         1 <0>         0.1000
     45 H13         2.5565    1.0361   -3.4833 H         1 <0>         0.0962
     46 H14         4.0866    2.5720   -2.4167 H         1 <0>         0.1355
     47 H15         6.3170    3.5496   -2.3894 H         1 <0>         0.1416
     48 H16         8.7100    3.4012   -2.9840 H         1 <0>         0.1480
     49 H17        10.5403    2.1817   -4.0182 H         1 <0>         0.1366
     50 H18         7.8956   -1.0095   -5.1134 H         1 <0>         0.1437
     51 H19         5.5001   -0.8561   -4.5041 H         1 <0>         0.1456
     52 H20        12.2136   -0.0060   -6.1877 H         1 <0>         0.4324
     53 H21         9.7182   -2.0400   -4.9015 H         1 <0>         0.4458
     54 H22        11.1993   -2.0181   -5.6941 H         1 <0>         0.4328
     55 H23         4.8829   -3.9454   -1.3569 H         1 <0>         0.1287
     56 H24         4.4709   -5.3400    0.5901 H         1 <0>         0.1340
     57 H25         3.0642   -5.9182    2.5365 H         1 <0>         0.1311
     58 H26         1.0842   -5.4960    3.8903 H         1 <0>         0.1284
     59 H27        -0.4806   -3.6929    3.3072 H         1 <0>         0.1285
     60 H28        -0.0891   -2.2816    1.3609 H         1 <0>         0.1299
     61 H29         1.3203   -1.6869   -0.5863 H         1 <0>         0.1501
     62 H30        11.4712    1.4376   -5.7546 H         1 <0>         0.4465
@<TRIPOS>BOND
     1    1    2 1
     2    1   33 1
     3    1   34 1
     4    1   35 1
     5    2    3 1
     6    2    4 1
     7    2   36 1
     8    3   37 1
     9    3   38 1
    10    3   39 1
    11    4    5 1
    12    4   40 1
    13    4   41 1
    14    5    6 1
    15    5   42 1
    16    5   43 1
    17    6    7 1
    18    6   21 am
    19    7    8 1
    20    7   44 1
    21    7   45 1
    22    8   17 ar
    23    8    9 ar
    24    9   10 ar
    25    9   46 1
    26   10   11 ar
    27   10   47 1
    28   11   16 ar
    29   11   12 ar
    30   12   13 ar
    31   12   48 1
    32   13   14 ar
    33   13   49 1
    34   14   15 ar
    35   14   18 1
    36   15   16 ar
    37   15   50 1
    38   16   17 ar
    39   17   51 1
    40   18   19 2
    41   18   20 1
    42   19   52 1
    43   19   62 1
    44   20   53 1
    45   20   54 1
    46   21   22 2
    47   21   23 1
    48   23   32 ar
    49   23   24 ar
    50   24   25 ar
    51   24   55 1
    52   25   26 ar
    53   25   56 1
    54   26   31 ar
    55   26   27 ar
    56   27   28 ar
    57   27   57 1
    58   28   29 ar
    59   28   58 1
    60   29   30 ar
    61   29   59 1
    62   30   31 ar
    63   30   60 1
    64   31   32 ar
    65   32   61 1
@<TRIPOS>MOLECULE
CHEMBL193985
   74    77     0     0     0
SMALL
USER_CHARGES

@<TRIPOS>ATOM
      1 C1          0.7882   -1.3086    4.1597 C.3       1 <0>        -0.1452
      2 C2          0.6046   -2.8171    3.9825 C.3       1 <0>        -0.0546
      3 C3          0.9374   -3.5291    5.2952 C.3       1 <0>        -0.1418
      4 C4         -0.8242   -3.1079    3.6016 C.ar      1 <0>        -0.1067
      5 C5         -1.8539   -2.7360    4.4516 C.ar      1 <0>        -0.1099
      6 C6         -3.1669   -2.9967    4.1151 C.ar      1 <0>        -0.1589
      7 C7         -3.4652   -3.6349    2.9199 C.ar      1 <0>         0.1055
      8 C8         -2.4260   -4.0128    2.0560 C.ar      1 <0>        -0.1215
      9 C9         -1.1006   -3.7368    2.4080 C.ar      1 <0>        -0.0612
     10 C10        -2.7289   -4.6907    0.7854 C.2       1 <0>         0.5140
     11 O1         -1.8199   -5.0185    0.0351 O.co2     1 <0>        -0.6822
     12 O2         -3.8898   -4.9265    0.4794 O.co2     1 <0>        -0.6627
     13 O3         -4.7546   -3.8925    2.5884 O.3       1 <0>        -0.1635
     14 C11        -5.7148   -3.0626    3.0708 C.ar      1 <0>         0.3626
     15 C12        -7.0513   -3.3750    2.8757 C.ar      1 <0>        -0.0238
     16 C13        -8.0292   -2.5162    3.3757 C.ar      1 <0>         0.2576
     17 C14        -7.6197   -1.3701    4.0563 C.ar      1 <0>        -0.0386
     18 C15        -6.2642   -1.1254    4.2115 C.ar      1 <0>         0.3349
     19 N1         -5.3635   -1.9671    3.7270 N.ar      1 <0>        -0.5709
     20 O4         -5.8548   -0.0122    4.8722 O.3       1 <0>        -0.2188
     21 C16        -4.5199    0.2316    4.9454 C.ar      1 <0>         0.1051
     22 C17        -3.6761   -0.2170    3.9379 C.ar      1 <0>        -0.0600
     23 C18        -2.3175    0.0282    4.0074 C.ar      1 <0>        -0.0802
     24 C19        -1.7909    0.7207    5.0790 C.ar      1 <0>        -0.0771
     25 C20        -2.6309    1.1756    6.0957 C.ar      1 <0>        -0.1489
     26 C21        -4.0022    0.9323    6.0220 C.ar      1 <0>        -0.0795
     27 C22        -2.0695    1.9180    7.2462 C.cat     1 <0>         0.6094
     28 N2         -0.8274    1.6697    7.6565 N.pl3     1 <0>        -0.7602
     29 N3         -2.8063    2.8341    7.8710 N.pl3     1 <0>        -0.7616
     30 F1         -8.5322   -0.5091    4.5576 F         1 <0>        -0.1190
     31 N4         -9.3848   -2.7965    3.1989 N.pl3     1 <0>        -0.7096
     32 C23        -9.8208   -4.1706    2.9387 C.3       1 <0>         0.1405
     33 C24        -9.9216   -4.3965    1.4288 C.3       1 <0>        -0.1767
     34 C25       -11.1899   -4.4017    3.5815 C.3       1 <0>        -0.1200
     35 C26       -11.0630   -4.2984    5.1027 C.3       1 <0>        -0.0816
     36 C27       -12.4115   -4.5260    5.7358 C.ar      1 <0>        -0.0817
     37 C28       -13.2589   -3.4571    5.9603 C.ar      1 <0>        -0.1184
     38 C29       -14.4959   -3.6658    6.5410 C.ar      1 <0>        -0.1184
     39 C30       -14.8856   -4.9434    6.8969 C.ar      1 <0>        -0.1253
     40 C31       -14.0386   -6.0124    6.6716 C.ar      1 <0>        -0.1171
     41 C32       -12.8034   -5.8043    6.0870 C.ar      1 <0>        -0.1175
     42 F2         -7.4016   -4.4968    2.2094 F         1 <0>        -0.0985
     43 H1          1.8217   -1.0983    4.4353 H         1 <0>         0.0563
     44 H2          0.5511   -0.8014    3.2245 H         1 <0>         0.0583
     45 H3          0.1228   -0.9514    4.9457 H         1 <0>         0.0477
     46 H4          1.2701   -3.1743    3.1966 H         1 <0>         0.0811
     47 H5          0.8066   -4.6039    5.1689 H         1 <0>         0.0588
     48 H6          1.9709   -3.3188    5.5707 H         1 <0>         0.0541
     49 H7          0.2720   -3.1720    6.0811 H         1 <0>         0.0502
     50 H8         -1.6273   -2.2393    5.3835 H         1 <0>         0.1109
     51 H9         -3.9631   -2.7039    4.7834 H         1 <0>         0.1383
     52 H10        -0.2951   -4.0204    1.7468 H         1 <0>         0.1364
     53 H11        -4.0826   -0.7597    3.0973 H         1 <0>         0.1746
     54 H12        -1.6660   -0.3234    3.2210 H         1 <0>         0.1532
     55 H13        -0.7288    0.9100    5.1305 H         1 <0>         0.1405
     56 H14        -4.6578    1.2853    6.8042 H         1 <0>         0.1450
     57 H15        -0.2905    1.0023    7.2013 H         1 <0>         0.4468
     58 H16        -3.7112    3.0150    7.5720 H         1 <0>         0.4465
     59 H17        -2.4383    3.3207    8.6251 H         1 <0>         0.4307
     60 H18       -10.0384   -2.0814    3.2483 H         1 <0>         0.4118
     61 H19        -9.0980   -4.8676    3.3629 H         1 <0>         0.0958
     62 H20        -8.9463   -4.2319    0.9709 H         1 <0>         0.0775
     63 H21       -10.2461   -5.4189    1.2352 H         1 <0>         0.0708
     64 H22       -10.6444   -3.6995    1.0047 H         1 <0>         0.0567
     65 H23       -11.8912   -3.6480    3.2234 H         1 <0>         0.0717
     66 H24       -11.5543   -5.3934    3.3137 H         1 <0>         0.0859
     67 H25       -10.3617   -5.0521    5.4608 H         1 <0>         0.0735
     68 H26       -10.6987   -3.3067    5.3705 H         1 <0>         0.0732
     69 H27       -12.9544   -2.4589    5.6822 H         1 <0>         0.1194
     70 H28       -15.1576   -2.8307    6.7170 H         1 <0>         0.1208
     71 H29       -15.8518   -5.1064    7.3513 H         1 <0>         0.1207
     72 H30       -14.3430   -7.0106    6.9500 H         1 <0>         0.1219
     73 H31       -12.1432   -6.6399    5.9076 H         1 <0>         0.1219
     74 H32        -0.4594    2.1563    8.4106 H         1 <0>         0.4313
@<TRIPOS>BOND
     1    1    2 1
     2    1   43 1
     3    1   44 1
     4    1   45 1
     5    2    3 1
     6    2    4 1
     7    2   46 1
     8    3   47 1
     9    3   48 1
    10    3   49 1
    11    4    9 ar
    12    4    5 ar
    13    5    6 ar
    14    5   50 1
    15    6    7 ar
    16    6   51 1
    17    7    8 ar
    18    7   13 1
    19    8    9 ar
    20    8   10 1
    21    9   52 1
    22   10   11 2
    23   10   12 1
    24   13   14 1
    25   14   19 ar
    26   14   15 ar
    27   15   16 ar
    28   15   42 1
    29   16   17 ar
    30   16   31 1
    31   17   18 ar
    32   17   30 1
    33   18   19 ar
    34   18   20 1
    35   20   21 1
    36   21   26 ar
    37   21   22 ar
    38   22   23 ar
    39   22   53 1
    40   23   24 ar
    41   23   54 1
    42   24   25 ar
    43   24   55 1
    44   25   26 ar
    45   25   27 1
    46   26   56 1
    47   27   28 2
    48   27   29 1
    49   28   57 1
    50   28   74 1
    51   29   58 1
    52   29   59 1
    53   31   32 1
    54   31   60 1
    55   32   33 1
    56   32   34 1
    57   32   61 1
    58   33   62 1
    59   33   63 1
    60   33   64 1
    61   34   35 1
    62   34   65 1
    63   34   66 1
    64   35   36 1
    65   35   67 1
    66   35   68 1
    67   36   41 ar
    68   36   37 ar
    69   37   38 ar
    70   37   69 1
    71   38   39 ar
    72   38   70 1
    73   39   40 ar
    74   39   71 1
    75   40   41 ar
    76   40   72 1
    77   41   73 1
@<TRIPOS>MOLECULE
CHEMBL193985__1
   74    77     0     0     0
SMALL
USER_CHARGES

@<TRIPOS>ATOM
      1 C1          0.2559    1.0048    1.2806 C.3       1 <0>        -0.1526
      2 C2          0.3120   -0.2900    0.4674 C.3       1 <0>        -0.0564
      3 C3          1.5256   -1.1136    0.9031 C.3       1 <0>        -0.1431
      4 C4         -0.9459   -1.0859    0.7026 C.ar      1 <0>        -0.0993
      5 C5         -1.2694   -1.5015    1.9848 C.ar      1 <0>        -0.1154
      6 C6         -2.4182   -2.2314    2.2141 C.ar      1 <0>        -0.1280
      7 C7         -3.2593   -2.5547    1.1591 C.ar      1 <0>         0.0974
      8 C8         -2.9360   -2.1357   -0.1405 C.ar      1 <0>        -0.1153
      9 C9         -1.7712   -1.3918   -0.3565 C.ar      1 <0>        -0.0705
     10 C10        -3.8194   -2.4724   -1.2683 C.2       1 <0>         0.5127
     11 O1         -3.5338   -2.1051   -2.3998 O.co2     1 <0>        -0.6802
     12 O2         -4.8393   -3.1196   -1.0744 O.co2     1 <0>        -0.6611
     13 O3         -4.3878   -3.2724    1.3827 O.3       1 <0>        -0.1818
     14 C11        -5.3488   -2.7211    2.1675 C.ar      1 <0>         0.3805
     15 C12        -6.5678   -3.3654    2.3123 C.ar      1 <0>        -0.0257
     16 C13        -7.5475   -2.7908    3.1209 C.ar      1 <0>         0.2607
     17 C14        -7.2588   -1.5830    3.7553 C.ar      1 <0>        -0.0450
     18 C15        -6.0167   -0.9990    3.5617 C.ar      1 <0>         0.3411
     19 N1         -5.1087   -1.5771    2.7899 N.ar      1 <0>        -0.5757
     20 O4         -5.7257    0.1772    4.1743 O.3       1 <0>        -0.2177
     21 C16        -4.5177    0.7463    3.9218 C.ar      1 <0>         0.1076
     22 C17        -3.8279    0.4242    2.7604 C.ar      1 <0>        -0.0797
     23 C18        -2.5989    1.0002    2.4986 C.ar      1 <0>        -0.0957
     24 C19        -2.0495    1.8994    3.3901 C.ar      1 <0>        -0.0802
     25 C20        -2.7354    2.2293    4.5593 C.ar      1 <0>        -0.1493
     26 C21        -3.9777    1.6517    4.8199 C.ar      1 <0>        -0.0833
     27 C22        -2.1489    3.1926    5.5174 C.cat     1 <0>         0.6100
     28 N2         -0.8265    3.2964    5.6318 N.pl3     1 <0>        -0.7610
     29 N3         -2.9436    3.9555    6.2651 N.pl3     1 <0>        -0.7619
     30 F1         -8.1780   -0.9895    4.5478 F         1 <0>        -0.1134
     31 N4         -8.7870   -3.4091    3.2910 N.pl3     1 <0>        -0.7086
     32 C23        -9.6737   -2.9859    4.3777 C.3       1 <0>         0.1429
     33 C24       -10.5010   -1.7825    3.9216 C.3       1 <0>        -0.1797
     34 C25       -10.6102   -4.1373    4.7494 C.3       1 <0>        -0.1210
     35 C26        -9.7915   -5.2958    5.3227 C.3       1 <0>        -0.0825
     36 C27       -10.7140   -6.4299    5.6888 C.ar      1 <0>        -0.0828
     37 C28       -11.2660   -6.4906    6.9547 C.ar      1 <0>        -0.1188
     38 C29       -12.1122   -7.5309    7.2905 C.ar      1 <0>        -0.1189
     39 C30       -12.4066   -8.5101    6.3603 C.ar      1 <0>        -0.1247
     40 C31       -11.8553   -8.4489    5.0942 C.ar      1 <0>        -0.1166
     41 C32       -11.0125   -7.4063    4.7570 C.ar      1 <0>        -0.1166
     42 F2         -6.8034   -4.5346    1.6778 F         1 <0>        -0.1051
     43 H1          1.1657    1.5804    1.1105 H         1 <0>         0.0597
     44 H2         -0.6087    1.5916    0.9702 H         1 <0>         0.0583
     45 H3          0.1706    0.7648    2.3404 H         1 <0>         0.0535
     46 H4          0.3973   -0.0500   -0.5924 H         1 <0>         0.0830
     47 H5          1.5656   -2.0361    0.3238 H         1 <0>         0.0597
     48 H6          2.4354   -0.5380    0.7330 H         1 <0>         0.0556
     49 H7          1.4403   -1.3536    1.9630 H         1 <0>         0.0537
     50 H8         -0.6181   -1.2529    2.8097 H         1 <0>         0.1179
     51 H9         -2.6626   -2.5515    3.2162 H         1 <0>         0.1194
     52 H10        -1.5173   -1.0616   -1.3530 H         1 <0>         0.1374
     53 H11        -4.2529   -0.2789    2.0595 H         1 <0>         0.1949
     54 H12        -2.0668    0.7457    1.5939 H         1 <0>         0.1622
     55 H13        -1.0887    2.3470    3.1829 H         1 <0>         0.1386
     56 H14        -4.5149    1.9062    5.7216 H         1 <0>         0.1443
     57 H15        -0.2475    2.7405    5.0870 H         1 <0>         0.4465
     58 H16        -3.9071    3.8800    6.1818 H         1 <0>         0.4466
     59 H17        -2.5592    4.5870    6.8931 H         1 <0>         0.4303
     60 H18        -9.0614   -4.1190    2.6896 H         1 <0>         0.4156
     61 H19        -9.0767   -2.7082    5.2464 H         1 <0>         0.0916
     62 H20       -11.1608   -1.4677    4.7301 H         1 <0>         0.0671
     63 H21        -9.8339   -0.9622    3.6568 H         1 <0>         0.0767
     64 H22       -11.0980   -2.0602    3.0528 H         1 <0>         0.0581
     65 H23       -11.3279   -3.7956    5.4951 H         1 <0>         0.0847
     66 H24       -11.1428   -4.4740    3.8600 H         1 <0>         0.0739
     67 H25        -9.0738   -5.6375    4.5770 H         1 <0>         0.0758
     68 H26        -9.2589   -4.9591    6.2121 H         1 <0>         0.0728
     69 H27       -11.0360   -5.7256    7.6814 H         1 <0>         0.1199
     70 H28       -12.5429   -7.5788    8.2798 H         1 <0>         0.1209
     71 H29       -13.0671   -9.3233    6.6229 H         1 <0>         0.1208
     72 H30       -12.0851   -9.2141    4.3675 H         1 <0>         0.1223
     73 H31       -10.5847   -7.3564    3.7666 H         1 <0>         0.1221
     74 H32        -0.4420    3.9278    6.2598 H         1 <0>         0.4308
@<TRIPOS>BOND
     1    1    2 1
     2    1   43 1
     3    1   44 1
     4    1   45 1
     5    2    3 1
     6    2    4 1
     7    2   46 1
     8    3   47 1
     9    3   48 1
    10    3   49 1
    11    4    9 ar
    12    4    5 ar
    13    5    6 ar
    14    5   50 1
    15    6    7 ar
    16    6   51 1
    17    7    8 ar
    18    7   13 1
    19    8    9 ar
    20    8   10 1
    21    9   52 1
    22   10   11 2
    23   10   12 1
    24   13   14 1
    25   14   19 ar
    26   14   15 ar
    27   15   16 ar
    28   15   42 1
    29   16   17 ar
    30   16   31 1
    31   17   18 ar
    32   17   30 1
    33   18   19 ar
    34   18   20 1
    35   20   21 1
    36   21   26 ar
    37   21   22 ar
    38   22   23 ar
    39   22   53 1
    40   23   24 ar
    41   23   54 1
    42   24   25 ar
    43   24   55 1
    44   25   26 ar
    45   25   27 1
    46   26   56 1
    47   27   28 2
    48   27   29 1
    49   28   57 1
    50   28   74 1
    51   29   58 1
    52   29   59 1
    53   31   32 1
    54   31   60 1
    55   32   33 1
    56   32   34 1
    57   32   61 1
    58   33   62 1
    59   33   63 1
    60   33   64 1
    61   34   35 1
    62   34   65 1
    63   34   66 1
    64   35   36 1
    65   35   67 1
    66   35   68 1
    67   36   41 ar
    68   36   37 ar
    69   37   38 ar
    70   37   69 1
    71   38   39 ar
    72   38   70 1
    73   39   40 ar
    74   39   71 1
    75   40   41 ar
    76   40   72 1
    77   41   73 1
@<TRIPOS>MOLECULE
CHEMBL207393
   60    64     0     0     0
SMALL
USER_CHARGES

@<TRIPOS>ATOM
      1 C1         -0.0166    1.3757    0.0096 C.ar      1 <0>        -0.1155
      2 C2          1.1704    2.0862    0.0021 C.ar      1 <0>        -0.0880
      3 C3          2.3817    1.4190   -0.0130 C.ar      1 <0>        -0.0996
      4 C4          2.4124    0.0390   -0.0207 C.ar      1 <0>        -0.0828
      5 C5          1.2199   -0.6818   -0.0132 C.ar      1 <0>        -0.0520
      6 C6          0.0021   -0.0041    0.0020 C.ar      1 <0>        -0.0908
      7 C7          1.2465   -2.1649   -0.0218 C.ar      1 <0>        -0.0600
      8 C8          2.0295   -2.8442   -0.9534 C.ar      1 <0>        -0.0664
      9 C9          2.0568   -4.2252   -0.9638 C.ar      1 <0>        -0.1170
     10 C10         1.3094   -4.9456   -0.0531 C.ar      1 <0>        -0.0833
     11 C11         0.5199   -4.2822    0.8866 C.ar      1 <0>        -0.0935
     12 C12         0.4916   -2.8837    0.9069 C.ar      1 <0>         0.1558
     13 O1         -0.2697   -2.2294    1.8209 O.3       1 <0>        -0.4818
     14 C13        -0.2802   -5.0545    1.8607 C.2       1 <0>         0.1603
     15 C14        -0.4494   -4.7290    3.1670 C.2       1 <0>        -0.1272
     16 C15        -1.3051   -5.7573    3.7534 C.ar      1 <0>        -0.1364
     17 C16        -1.8327   -5.9876    5.0237 C.ar      1 <0>         0.2054
     18 N1         -2.5952   -7.0389    5.2422 N.ar      1 <0>        -0.4602
     19 H1         -1.0090   -6.6423    0.7119 H         1 <0>         0.4367
     20 C17        -2.8903   -7.9070    4.2886 C.ar      1 <0>         0.0980
     21 C18        -2.4123   -7.7573    3.0051 C.ar      1 <0>        -0.1120
     22 C19        -1.6002   -6.6642    2.7124 C.ar      1 <0>         0.1762
     23 N2         -0.9727   -6.2110    1.5799 N.pl3     1 <0>        -0.5535
     24 C20         3.6705    2.2000   -0.0216 C.3       1 <0>         0.1578
     25 N3          4.1016    2.4461    1.3567 N.am      1 <0>        -0.7160
     26 C21         5.2372    3.1316    1.5954 C.2       1 <0>         0.5195
     27 O2          5.9023    3.5446    0.6691 O.2       1 <0>        -0.5295
     28 C22         5.6806    3.3848    3.0133 C.3       1 <0>        -0.0592
     29 C23         4.6041    4.1853    3.7490 C.3       1 <0>         0.0872
     30 O3          3.4168    3.3978    3.8592 O.3       1 <0>        -0.5756
     31 C24         6.9694    4.1658    3.0046 C.ar      1 <0>        -0.1298
     32 C25         8.1137    3.6386    3.5839 C.ar      1 <0>        -0.0623
     33 C26         9.2766    4.3926    3.5524 C.ar      1 <0>        -0.1737
     34 C27         9.2569    5.6361    2.9491 C.ar      1 <0>         0.1055
     35 N4          8.1499    6.1060    2.4085 N.ar      1 <0>        -0.4832
     36 C28         7.0272    5.4139    2.4145 C.ar      1 <0>         0.1352
     37 H2         -0.9597    1.9019    0.0259 H         1 <0>         0.1294
     38 H3          1.1511    3.1660    0.0077 H         1 <0>         0.1283
     39 H4          3.3589   -0.4811   -0.0328 H         1 <0>         0.1261
     40 H5         -0.9252   -0.5578    0.0079 H         1 <0>         0.1174
     41 H6          2.6167   -2.2889   -1.6699 H         1 <0>         0.1399
     42 H7          2.6660   -4.7446   -1.6887 H         1 <0>         0.1403
     43 H8          1.3359   -6.0252   -0.0686 H         1 <0>         0.1295
     44 H9         -1.1723   -2.0491    1.5243 H         1 <0>         0.3931
     45 H10        -0.0311   -3.8732    3.6760 H         1 <0>         0.1828
     46 H11        -1.6153   -5.3026    5.8299 H         1 <0>         0.2112
     47 H12        -3.5201   -8.7528    4.5216 H         1 <0>         0.2077
     48 H13        -2.6628   -8.4758    2.2387 H         1 <0>         0.1787
     49 H14         4.4374    1.6297   -0.5458 H         1 <0>         0.0768
     50 H15         3.5151    3.1519   -0.5292 H         1 <0>         0.0790
     51 H16         3.5697    2.1158    2.0975 H         1 <0>         0.4115
     52 H17         5.8360    2.4328    3.5208 H         1 <0>         0.1137
     53 H18         4.9617    4.4448    4.7454 H         1 <0>         0.0648
     54 H19         4.3852    5.0967    3.1927 H         1 <0>         0.0571
     55 H20         2.6903    3.8433    4.3160 H         1 <0>         0.3905
     56 H21         8.0993    2.6638    4.0487 H         1 <0>         0.1346
     57 H22        10.1863    4.0134    3.9941 H         1 <0>         0.1387
     58 H23        10.1587    6.2297    2.9204 H         1 <0>         0.1587
     59 H24         6.1416    5.8295    1.9570 H         1 <0>         0.1497
     60 H25        -2.9523   -7.1818    6.1327 H         1 <0>         0.4520
@<TRIPOS>BOND
     1    1    6 ar
     2    1    2 ar
     3    1   37 1
     4    2    3 ar
     5    2   38 1
     6    3    4 ar
     7    3   24 1
     8    4    5 ar
     9    4   39 1
    10    5    6 ar
    11    5    7 1
    12    6   40 1
    13    7   12 ar
    14    7    8 ar
    15    8    9 ar
    16    8   41 1
    17    9   10 ar
    18    9   42 1
    19   10   11 ar
    20   10   43 1
    21   11   12 ar
    22   11   14 1
    23   12   13 1
    24   13   44 1
    25   14   23 1
    26   14   15 2
    27   15   16 1
    28   15   45 1
    29   16   17 ar
    30   16   22 ar
    31   17   18 ar
    32   17   46 1
    33   18   20 ar
    34   18   60 1
    35   19   23 1
    36   20   21 ar
    37   20   47 1
    38   21   22 ar
    39   21   48 1
    40   22   23 1
    41   24   25 1
    42   24   49 1
    43   24   50 1
    44   25   26 am
    45   25   51 1
    46   26   27 2
    47   26   28 1
    48   28   29 1
    49   28   31 1
    50   28   52 1
    51   29   30 1
    52   29   53 1
    53   29   54 1
    54   30   55 1
    55   31   36 ar
    56   31   32 ar
    57   32   33 ar
    58   32   56 1
    59   33   34 ar
    60   33   57 1
    61   34   35 ar
    62   34   58 1
    63   35   36 ar
    64   36   59 1
@<TRIPOS>MOLECULE
CHEMBL207393__1
   60    64     0     0     0
SMALL
USER_CHARGES

@<TRIPOS>ATOM
      1 C1         -0.0166    1.3757    0.0096 C.ar      1 <0>        -0.1149
      2 C2          1.1704    2.0862    0.0021 C.ar      1 <0>        -0.0898
      3 C3          2.3817    1.4190   -0.0130 C.ar      1 <0>        -0.1040
      4 C4          2.4124    0.0390   -0.0207 C.ar      1 <0>        -0.0827
      5 C5          1.2199   -0.6818   -0.0132 C.ar      1 <0>        -0.0513
      6 C6          0.0021   -0.0041    0.0020 C.ar      1 <0>        -0.0895
      7 C7          1.2465   -2.1649   -0.0218 C.ar      1 <0>        -0.0615
      8 C8          2.0295   -2.8442   -0.9534 C.ar      1 <0>        -0.0661
      9 C9          2.0568   -4.2252   -0.9638 C.ar      1 <0>        -0.1166
     10 C10         1.3094   -4.9456   -0.0531 C.ar      1 <0>        -0.0826
     11 C11         0.5199   -4.2822    0.8866 C.ar      1 <0>        -0.0930
     12 C12         0.4916   -2.8837    0.9069 C.ar      1 <0>         0.1555
     13 O1         -0.2697   -2.2294    1.8209 O.3       1 <0>        -0.4825
     14 C13        -0.2802   -5.0545    1.8607 C.2       1 <0>         0.1597
     15 C14        -0.4494   -4.7290    3.1670 C.2       1 <0>        -0.1271
     16 C15        -1.3051   -5.7573    3.7534 C.ar      1 <0>        -0.1367
     17 C16        -1.8327   -5.9876    5.0237 C.ar      1 <0>         0.2055
     18 N1         -2.5952   -7.0389    5.2422 N.ar      1 <0>        -0.4600
     19 H1         -1.0090   -6.6423    0.7119 H         1 <0>         0.4368
     20 C17        -2.8903   -7.9070    4.2886 C.ar      1 <0>         0.0985
     21 C18        -2.4123   -7.7573    3.0051 C.ar      1 <0>        -0.1120
     22 C19        -1.6002   -6.6642    2.7124 C.ar      1 <0>         0.1766
     23 N2         -0.9727   -6.2110    1.5799 N.pl3     1 <0>        -0.5536
     24 C20         3.6705    2.2000   -0.0216 C.3       1 <0>         0.1589
     25 N3          4.1016    2.4461    1.3567 N.am      1 <0>        -0.7269
     26 C21         5.2372    3.1316    1.5954 C.2       1 <0>         0.5211
     27 O2          5.9023    3.5446    0.6691 O.2       1 <0>        -0.5144
     28 C22         5.6806    3.3848    3.0133 C.3       1 <0>        -0.0624
     29 C23         5.8988    2.0485    3.7257 C.3       1 <0>         0.0896
     30 O3          6.2058    2.2865    5.1009 O.3       1 <0>        -0.5626
     31 C24         6.9694    4.1658    3.0046 C.ar      1 <0>        -0.1172
     32 C25         7.0406    5.4099    3.6131 C.ar      1 <0>        -0.0599
     33 C26         8.2468    6.0923    3.5804 C.ar      1 <0>        -0.1730
     34 C27         9.3308    5.5142    2.9469 C.ar      1 <0>         0.1009
     35 N4          9.2264    4.3291    2.3783 N.ar      1 <0>        -0.4844
     36 C28         8.0967    3.6488    2.3953 C.ar      1 <0>         0.1305
     37 H2         -0.9597    1.9019    0.0259 H         1 <0>         0.1302
     38 H3          1.1511    3.1660    0.0077 H         1 <0>         0.1292
     39 H4          3.3589   -0.4811   -0.0328 H         1 <0>         0.1273
     40 H5         -0.9252   -0.5578    0.0079 H         1 <0>         0.1181
     41 H6          2.6167   -2.2889   -1.6699 H         1 <0>         0.1402
     42 H7          2.6660   -4.7446   -1.6887 H         1 <0>         0.1407
     43 H8          1.3359   -6.0252   -0.0686 H         1 <0>         0.1298
     44 H9         -1.1723   -2.0491    1.5243 H         1 <0>         0.3935
     45 H10        -0.0311   -3.8732    3.6760 H         1 <0>         0.1825
     46 H11        -1.6153   -5.3026    5.8299 H         1 <0>         0.2112
     47 H12        -3.5201   -8.7528    4.5216 H         1 <0>         0.2079
     48 H13        -2.6628   -8.4758    2.2387 H         1 <0>         0.1788
     49 H14         4.4374    1.6297   -0.5458 H         1 <0>         0.0807
     50 H15         3.5151    3.1519   -0.5292 H         1 <0>         0.0819
     51 H16         3.5697    2.1158    2.0975 H         1 <0>         0.4021
     52 H17         4.9137    3.9551    3.5374 H         1 <0>         0.1161
     53 H18         4.9928    1.4467    3.6546 H         1 <0>         0.0539
     54 H19         6.7260    1.5169    3.2555 H         1 <0>         0.0560
     55 H20         6.3568    1.4816    5.6152 H         1 <0>         0.3860
     56 H21         6.1767    5.8371    4.1006 H         1 <0>         0.1327
     57 H22         8.3383    7.0636    4.0437 H         1 <0>         0.1371
     58 H23        10.2740    6.0393    2.9170 H         1 <0>         0.1571
     59 H24         8.0508    2.6785    1.9234 H         1 <0>         0.1457
     60 H25        -2.9523   -7.1818    6.1327 H         1 <0>         0.4522
@<TRIPOS>BOND
     1    1    6 ar
     2    1    2 ar
     3    1   37 1
     4    2    3 ar
     5    2   38 1
     6    3    4 ar
     7    3   24 1
     8    4    5 ar
     9    4   39 1
    10    5    6 ar
    11    5    7 1
    12    6   40 1
    13    7   12 ar
    14    7    8 ar
    15    8    9 ar
    16    8   41 1
    17    9   10 ar
    18    9   42 1
    19   10   11 ar
    20   10   43 1
    21   11   12 ar
    22   11   14 1
    23   12   13 1
    24   13   44 1
    25   14   23 1
    26   14   15 2
    27   15   16 1
    28   15   45 1
    29   16   17 ar
    30   16   22 ar
    31   17   18 ar
    32   17   46 1
    33   18   20 ar
    34   18   60 1
    35   19   23 1
    36   20   21 ar
    37   20   47 1
    38   21   22 ar
    39   21   48 1
    40   22   23 1
    41   24   25 1
    42   24   49 1
    43   24   50 1
    44   25   26 am
    45   25   51 1
    46   26   27 2
    47   26   28 1
    48   28   29 1
    49   28   31 1
    50   28   52 1
    51   29   30 1
    52   29   53 1
    53   29   54 1
    54   30   55 1
    55   31   36 ar
    56   31   32 ar
    57   32   33 ar
    58   32   56 1
    59   33   34 ar
    60   33   57 1
    61   34   35 ar
    62   34   58 1
    63   35   36 ar
    64   36   59 1
@<TRIPOS>MOLECULE
CHEMBL204228
   51    54     0     0     0
SMALL
USER_CHARGES

@<TRIPOS>ATOM
      1 C1         -0.0167    1.3787    0.0096 C.ar      1 <0>        -0.1791
      2 C2          1.1812    2.0724    0.0019 C.ar      1 <0>        -0.0544
      3 C3          2.3718    1.3393   -0.0134 C.ar      1 <0>        -0.0392
      4 C4          2.3056   -0.0538   -0.0202 C.ar      1 <0>         0.1023
      5 N1          1.1413   -0.6692   -0.0129 N.ar      1 <0>        -0.4848
      6 C5          0.0021   -0.0041    0.0020 C.ar      1 <0>         0.0759
      7 C6          3.6820    2.0310   -0.0227 C.ar      1 <0>        -0.2337
      8 C7          4.6688    1.6656    0.8813 C.ar      1 <0>         0.0550
      9 C8          5.8977    2.3079    0.8800 C.ar      1 <0>        -0.0778
     10 C9          6.1634    3.3182   -0.0153 C.ar      1 <0>        -0.0769
     11 C10         5.1897    3.7136   -0.9430 C.ar      1 <0>        -0.2994
     12 C11         3.9332    3.0606   -0.9553 C.ar      1 <0>         0.4254
     13 O1          3.0724    3.3892   -1.7619 O.3       1 <0>        -0.5789
     14 C12         5.4628    4.7556   -1.8656 C.cat     1 <0>         0.4921
     15 N2          6.2229    5.8399   -1.6107 N.pl3     1 <0>        -0.5843
     16 H1          6.6701    6.0347   -0.7722 H         1 <0>         0.4587
     17 C13         6.2577    6.6280   -2.7493 C.ar      1 <0>         0.1560
     18 C14         6.8757    7.8368   -3.0506 C.ar      1 <0>        -0.1001
     19 C15         6.7288    8.3927   -4.2896 C.ar      1 <0>        -0.0505
     20 C16         5.9572    7.7517   -5.2641 C.ar      1 <0>        -0.1651
     21 C17         5.3330    6.5394   -4.9732 C.ar      1 <0>        -0.0433
     22 C18         5.4830    5.9771   -3.7165 C.ar      1 <0>         0.0867
     23 N3          5.0070    4.8105   -3.1325 N.pl3     1 <0>        -0.5732
     24 C19         5.8031    8.3598   -6.6025 C.cat     1 <0>         0.6109
     25 N4          5.8426    9.6842   -6.7409 N.pl3     1 <0>        -0.7622
     26 N5          5.6247    7.5835   -7.6703 N.pl3     1 <0>        -0.7624
     27 C20         6.9547    1.8948    1.8715 C.3       1 <0>        -0.0987
     28 C21         7.3022    0.4196    1.6615 C.3       1 <0>        -0.1542
     29 C22         8.4439    0.0385    2.5683 C.2       1 <0>         0.4879
     30 O2          8.9342    0.8696    3.3135 O.co2     1 <0>        -0.6697
     31 O3          8.8773   -1.1011    2.5568 O.co2     1 <0>        -0.7301
     32 C23         6.4351    2.0940    3.2720 C.2       1 <0>         0.5265
     33 O4          5.4364    1.5005    3.6418 O.co2     1 <0>        -0.7132
     34 O5          7.0135    2.8486    4.0352 O.co2     1 <0>        -0.6858
     35 H2         -0.9559    1.9116    0.0259 H         1 <0>         0.1257
     36 H3          1.1957    3.1523    0.0072 H         1 <0>         0.1272
     37 H4          3.2171   -0.6329   -0.0321 H         1 <0>         0.1563
     38 H5         -0.9308   -0.5482    0.0084 H         1 <0>         0.1467
     39 H6          4.4783    0.8749    1.5919 H         1 <0>         0.1435
     40 H7          7.1255    3.8088   -0.0030 H         1 <0>         0.1100
     41 H8          7.4731    8.3374   -2.3030 H         1 <0>         0.1592
     42 H9          7.2105    9.3320   -4.5177 H         1 <0>         0.1488
     43 H10         4.7359    6.0421   -5.7232 H         1 <0>         0.1486
     44 H11         5.9725   10.2495   -5.9634 H         1 <0>         0.4463
     45 H12         5.5959    6.6191   -7.5695 H         1 <0>         0.4465
     46 H13         5.5235    7.9825   -8.5486 H         1 <0>         0.4308
     47 H14         7.8475    2.5027    1.7253 H         1 <0>         0.0653
     48 H15         6.4327   -0.1952    1.8940 H         1 <0>         0.0585
     49 H16         7.5936    0.2592    0.6235 H         1 <0>         0.0370
     50 H17         5.7415   10.0833   -7.6192 H         1 <0>         0.4308
     51 H18         4.4416    4.1496   -3.5620 H         1 <0>         0.4581
@<TRIPOS>BOND
     1    1    6 ar
     2    1    2 ar
     3    1   35 1
     4    2    3 ar
     5    2   36 1
     6    3    4 ar
     7    3    7 1
     8    4    5 ar
     9    4   37 1
    10    5    6 ar
    11    6   38 1
    12    7   12 ar
    13    7    8 ar
    14    8    9 ar
    15    8   39 1
    16    9   10 ar
    17    9   27 1
    18   10   11 ar
    19   10   40 1
    20   11   12 ar
    21   11   14 1
    22   12   13 1
    23   14   23 2
    24   14   15 1
    25   15   16 1
    26   15   17 1
    27   17   22 ar
    28   17   18 ar
    29   18   19 ar
    30   18   41 1
    31   19   20 ar
    32   19   42 1
    33   20   21 ar
    34   20   24 1
    35   21   22 ar
    36   21   43 1
    37   22   23 1
    38   23   51 1
    39   24   25 2
    40   24   26 1
    41   25   44 1
    42   25   50 1
    43   26   45 1
    44   26   46 1
    45   27   28 1
    46   27   32 1
    47   27   47 1
    48   28   29 1
    49   28   48 1
    50   28   49 1
    51   29   30 2
    52   29   31 1
    53   32   33 2
    54   32   34 1
@<TRIPOS>MOLECULE
CHEMBL204228__1
   51    54     0     0     0
SMALL
USER_CHARGES

@<TRIPOS>ATOM
      1 C1         -0.0167    1.3785    0.0096 C.ar      1 <0>        -0.1739
      2 C2          1.1815    2.0722    0.0019 C.ar      1 <0>        -0.0609
      3 C3          2.3714    1.3395   -0.0134 C.ar      1 <0>        -0.0683
      4 C4          2.3056   -0.0526   -0.0202 C.ar      1 <0>         0.1143
      5 N1          1.1415   -0.6687   -0.0129 N.ar      1 <0>        -0.4812
      6 C5          0.0021   -0.0041    0.0020 C.ar      1 <0>         0.0883
      7 C6          3.6831    2.0322   -0.0227 C.ar      1 <0>        -0.0908
      8 C7          4.6733    1.6646    0.8856 C.ar      1 <0>        -0.0617
      9 C8          5.8961    2.3080    0.8800 C.ar      1 <0>        -0.0267
     10 C9          6.1491    3.3198   -0.0242 C.ar      1 <0>        -0.0416
     11 C10         5.1692    3.7013   -0.9419 C.ar      1 <0>        -0.1026
     12 C11         3.9304    3.0508   -0.9459 C.ar      1 <0>         0.1504
     13 O1          2.9731    3.4110   -1.8376 O.3       1 <0>        -0.4695
     14 C12         5.4410    4.7844   -1.9095 C.2       1 <0>         0.3976
     15 N2          6.6168    5.4805   -2.0027 N.pl3     1 <0>        -0.5799
     16 H1          7.4062    5.3520   -1.4538 H         1 <0>         0.4443
     17 C13         6.4703    6.3977   -3.0222 C.ar      1 <0>         0.0947
     18 C14         7.3053    7.3633   -3.5725 C.ar      1 <0>        -0.0836
     19 C15         6.8666    8.1424   -4.6038 C.ar      1 <0>        -0.0805
     20 C16         5.5742    7.9781   -5.1184 C.ar      1 <0>        -0.1800
     21 C17         4.7243    7.0173   -4.5816 C.ar      1 <0>         0.0073
     22 C18         5.1683    6.2188   -3.5268 C.ar      1 <0>         0.0501
     23 N3          4.5950    5.2195   -2.8111 N.2       1 <0>        -0.4698
     24 C19         5.1122    8.8292   -6.2352 C.cat     1 <0>         0.6130
     25 N4          5.5882   10.0660   -6.3712 N.pl3     1 <0>        -0.7661
     26 N5          4.2199    8.3594   -7.1057 N.pl3     1 <0>        -0.7661
     27 C20         6.9599    1.9030    1.8677 C.3       1 <0>        -0.1099
     28 C21         7.3261    3.1029    2.7435 C.3       1 <0>        -0.1512
     29 C22         8.2986    2.6685    3.8096 C.2       1 <0>         0.4876
     30 O2          8.6648    1.5068    3.8639 O.co2     1 <0>        -0.6648
     31 O3          8.7192    3.4786    4.6178 O.co2     1 <0>        -0.7293
     32 C23         8.1830    1.4322    1.1237 C.2       1 <0>         0.5295
     33 O4          8.7612    2.1878    0.3613 O.co2     1 <0>        -0.7212
     34 O5          8.5943    0.2958    1.2842 O.co2     1 <0>        -0.6731
     35 H2         -0.9558    1.9115    0.0259 H         1 <0>         0.1322
     36 H3          1.1962    3.1521    0.0072 H         1 <0>         0.1281
     37 H4          3.2174   -0.6314   -0.0321 H         1 <0>         0.1611
     38 H5         -0.9307   -0.5483    0.0080 H         1 <0>         0.1519
     39 H6          4.4845    0.8741    1.5968 H         1 <0>         0.1354
     40 H7          7.1075    3.8176   -0.0213 H         1 <0>         0.1438
     41 H8          2.3851    4.1110   -1.5221 H         1 <0>         0.3775
     42 H9          8.3035    7.4976   -3.1827 H         1 <0>         0.1462
     43 H10         7.5205    8.8911   -5.0260 H         1 <0>         0.1391
     44 H11         3.7278    6.8903   -4.9780 H         1 <0>         0.1425
     45 H12         6.2379   10.4080   -5.7374 H         1 <0>         0.4457
     46 H13         3.8734    7.4588   -7.0066 H         1 <0>         0.4465
     47 H14         3.9168    8.9179   -7.8385 H         1 <0>         0.4277
     48 H15         6.5838    1.0958    2.4961 H         1 <0>         0.0763
     49 H16         7.7844    3.8763    2.1271 H         1 <0>         0.0544
     50 H17         6.4254    3.4986    3.2128 H         1 <0>         0.0397
     51 H18         5.2850   10.6244   -7.1041 H         1 <0>         0.4276
@<TRIPOS>BOND
     1    1    6 ar
     2    1    2 ar
     3    1   35 1
     4    2    3 ar
     5    2   36 1
     6    3    4 ar
     7    3    7 1
     8    4    5 ar
     9    4   37 1
    10    5    6 ar
    11    6   38 1
    12    7   12 ar
    13    7    8 ar
    14    8    9 ar
    15    8   39 1
    16    9   10 ar
    17    9   27 1
    18   10   11 ar
    19   10   40 1
    20   11   12 ar
    21   11   14 1
    22   12   13 1
    23   13   41 1
    24   14   23 2
    25   14   15 1
    26   15   16 1
    27   15   17 1
    28   17   22 ar
    29   17   18 ar
    30   18   19 ar
    31   18   42 1
    32   19   20 ar
    33   19   43 1
    34   20   21 ar
    35   20   24 1
    36   21   22 ar
    37   21   44 1
    38   22   23 1
    39   24   25 2
    40   24   26 1
    41   25   45 1
    42   25   51 1
    43   26   46 1
    44   26   47 1
    45   27   28 1
    46   27   32 1
    47   27   48 1
    48   28   29 1
    49   28   49 1
    50   28   50 1
    51   29   30 2
    52   29   31 1
    53   32   33 2
    54   32   34 1
@<TRIPOS>MOLECULE
CHEMBL204228__2
   51    54     0     0     0
SMALL
USER_CHARGES

@<TRIPOS>ATOM
      1 C1         -0.0167    1.3787    0.0096 C.ar      1 <0>        -0.1820
      2 C2          1.1812    2.0724    0.0019 C.ar      1 <0>        -0.0561
      3 C3          2.3718    1.3393   -0.0134 C.ar      1 <0>        -0.0423
      4 C4          2.3056   -0.0538   -0.0202 C.ar      1 <0>         0.1051
      5 N1          1.1413   -0.6692   -0.0129 N.ar      1 <0>        -0.4852
      6 C5          0.0021   -0.0041    0.0020 C.ar      1 <0>         0.0754
      7 C6          3.6820    2.0310   -0.0227 C.ar      1 <0>        -0.2350
      8 C7          4.6688    1.6656    0.8813 C.ar      1 <0>         0.0737
      9 C8          5.8977    2.3079    0.8800 C.ar      1 <0>        -0.0562
     10 C9          6.1634    3.3182   -0.0153 C.ar      1 <0>        -0.0841
     11 C10         5.1897    3.7136   -0.9430 C.ar      1 <0>        -0.2940
     12 C11         3.9332    3.0606   -0.9553 C.ar      1 <0>         0.4266
     13 O1          3.0724    3.3892   -1.7619 O.3       1 <0>        -0.5795
     14 C12         5.4628    4.7556   -1.8656 C.cat     1 <0>         0.4875
     15 N2          6.2229    5.8399   -1.6107 N.pl3     1 <0>        -0.5856
     16 H1          6.6701    6.0347   -0.7722 H         1 <0>         0.4571
     17 C13         6.2577    6.6280   -2.7493 C.ar      1 <0>         0.1562
     18 C14         6.8757    7.8368   -3.0506 C.ar      1 <0>        -0.1016
     19 C15         6.7288    8.3927   -4.2896 C.ar      1 <0>        -0.0508
     20 C16         5.9572    7.7517   -5.2641 C.ar      1 <0>        -0.1655
     21 C17         5.3330    6.5394   -4.9732 C.ar      1 <0>        -0.0445
     22 C18         5.4830    5.9771   -3.7165 C.ar      1 <0>         0.0882
     23 N3          5.0070    4.8105   -3.1325 N.pl3     1 <0>        -0.5739
     24 C19         5.8031    8.3598   -6.6025 C.cat     1 <0>         0.6109
     25 N4          5.8426    9.6842   -6.7409 N.pl3     1 <0>        -0.7628
     26 N5          5.6247    7.5835   -7.6703 N.pl3     1 <0>        -0.7623
     27 C20         6.9547    1.8948    1.8715 C.3       1 <0>        -0.1053
     28 C21         6.4272    2.0970    3.2934 C.3       1 <0>        -0.1524
     29 C22         7.5244    1.8011    4.2831 C.2       1 <0>         0.4860
     30 O2          8.6262    1.4600    3.8879 O.co2     1 <0>        -0.6392
     31 O3          7.3104    1.9027    5.4791 O.co2     1 <0>        -0.7429
     32 C23         7.2970    0.4418    1.6647 C.2       1 <0>         0.4959
     33 O4          6.7347   -0.1988    0.7929 O.co2     1 <0>        -0.7306
     34 O5          8.1362   -0.0931    2.3691 O.co2     1 <0>        -0.6333
     35 H2         -0.9559    1.9116    0.0259 H         1 <0>         0.1249
     36 H3          1.1957    3.1523    0.0072 H         1 <0>         0.1268
     37 H4          3.2171   -0.6329   -0.0321 H         1 <0>         0.1626
     38 H5         -0.9308   -0.5482    0.0084 H         1 <0>         0.1460
     39 H6          4.4783    0.8749    1.5919 H         1 <0>         0.1246
     40 H7          7.1255    3.8088   -0.0030 H         1 <0>         0.1071
     41 H8          7.4731    8.3374   -2.3030 H         1 <0>         0.1583
     42 H9          7.2105    9.3320   -4.5177 H         1 <0>         0.1482
     43 H10         4.7359    6.0421   -5.7232 H         1 <0>         0.1484
     44 H11         5.9725   10.2495   -5.9634 H         1 <0>         0.4461
     45 H12         5.5959    6.6191   -7.5695 H         1 <0>         0.4467
     46 H13         5.5235    7.9825   -8.5486 H         1 <0>         0.4307
     47 H14         7.8475    2.5027    1.7253 H         1 <0>         0.0654
     48 H15         6.0967    3.1286    3.4150 H         1 <0>         0.0340
     49 H16         5.5883    1.4236    3.4689 H         1 <0>         0.0436
     50 H17         5.7415   10.0833   -7.6192 H         1 <0>         0.4307
     51 H18         4.4416    4.1496   -3.5620 H         1 <0>         0.4583
@<TRIPOS>BOND
     1    1    6 ar
     2    1    2 ar
     3    1   35 1
     4    2    3 ar
     5    2   36 1
     6    3    4 ar
     7    3    7 1
     8    4    5 ar
     9    4   37 1
    10    5    6 ar
    11    6   38 1
    12    7   12 ar
    13    7    8 ar
    14    8    9 ar
    15    8   39 1
    16    9   10 ar
    17    9   27 1
    18   10   11 ar
    19   10   40 1
    20   11   12 ar
    21   11   14 1
    22   12   13 1
    23   14   23 2
    24   14   15 1
    25   15   16 1
    26   15   17 1
    27   17   22 ar
    28   17   18 ar
    29   18   19 ar
    30   18   41 1
    31   19   20 ar
    32   19   42 1
    33   20   21 ar
    34   20   24 1
    35   21   22 ar
    36   21   43 1
    37   22   23 1
    38   23   51 1
    39   24   25 2
    40   24   26 1
    41   25   44 1
    42   25   50 1
    43   26   45 1
    44   26   46 1
    45   27   28 1
    46   27   32 1
    47   27   47 1
    48   28   29 1
    49   28   48 1
    50   28   49 1
    51   29   30 2
    52   29   31 1
    53   32   33 2
    54   32   34 1
@<TRIPOS>MOLECULE
CHEMBL204228__3
   51    54     0     0     0
SMALL
USER_CHARGES

@<TRIPOS>ATOM
      1 C1         -0.0167    1.3785    0.0096 C.ar      1 <0>        -0.1728
      2 C2          1.1815    2.0722    0.0019 C.ar      1 <0>        -0.0606
      3 C3          2.3714    1.3395   -0.0134 C.ar      1 <0>        -0.0660
      4 C4          2.3056   -0.0526   -0.0202 C.ar      1 <0>         0.1119
      5 N1          1.1415   -0.6687   -0.0129 N.ar      1 <0>        -0.4822
      6 C5          0.0021   -0.0041    0.0020 C.ar      1 <0>         0.0870
      7 C6          3.6831    2.0322   -0.0227 C.ar      1 <0>        -0.0909
      8 C7          4.6733    1.6646    0.8856 C.ar      1 <0>        -0.0640
      9 C8          5.8961    2.3080    0.8800 C.ar      1 <0>        -0.0092
     10 C9          6.1491    3.3198   -0.0242 C.ar      1 <0>        -0.0232
     11 C10         5.1692    3.7013   -0.9419 C.ar      1 <0>        -0.1028
     12 C11         3.9304    3.0508   -0.9459 C.ar      1 <0>         0.1491
     13 O1          2.9731    3.4110   -1.8376 O.3       1 <0>        -0.4714
     14 C12         5.4410    4.7844   -1.9095 C.2       1 <0>         0.4003
     15 N2          6.6168    5.4805   -2.0027 N.pl3     1 <0>        -0.5817
     16 H1          7.4062    5.3520   -1.4538 H         1 <0>         0.4417
     17 C13         6.4703    6.3977   -3.0222 C.ar      1 <0>         0.0938
     18 C14         7.3053    7.3633   -3.5725 C.ar      1 <0>        -0.0842
     19 C15         6.8666    8.1424   -4.6038 C.ar      1 <0>        -0.0807
     20 C16         5.5742    7.9781   -5.1184 C.ar      1 <0>        -0.1799
     21 C17         4.7243    7.0173   -4.5816 C.ar      1 <0>         0.0069
     22 C18         5.1683    6.2188   -3.5268 C.ar      1 <0>         0.0514
     23 N3          4.5950    5.2195   -2.8111 N.2       1 <0>        -0.4703
     24 C19         5.1122    8.8292   -6.2352 C.cat     1 <0>         0.6130
     25 N4          5.5882   10.0660   -6.3712 N.pl3     1 <0>        -0.7660
     26 N5          4.2199    8.3594   -7.1057 N.pl3     1 <0>        -0.7662
     27 C20         6.9599    1.9030    1.8677 C.3       1 <0>        -0.1152
     28 C21         8.2017    1.4251    1.1123 C.3       1 <0>        -0.1507
     29 C22         9.2186    0.9054    2.0956 C.2       1 <0>         0.4854
     30 O2          8.9730    0.9162    3.2897 O.co2     1 <0>        -0.6353
     31 O3         10.2870    0.4740    1.6968 O.co2     1 <0>        -0.7416
     32 C23         7.3206    3.0849    2.7303 C.2       1 <0>         0.4989
     33 O4          6.7653    4.1567    2.5590 O.co2     1 <0>        -0.7345
     34 O5          8.1677    2.9692    3.5995 O.co2     1 <0>        -0.6256
     35 H2         -0.9558    1.9115    0.0259 H         1 <0>         0.1322
     36 H3          1.1962    3.1521    0.0072 H         1 <0>         0.1287
     37 H4          3.2174   -0.6314   -0.0321 H         1 <0>         0.1595
     38 H5         -0.9307   -0.5483    0.0080 H         1 <0>         0.1516
     39 H6          4.4845    0.8741    1.5968 H         1 <0>         0.1323
     40 H7          7.1075    3.8176   -0.0213 H         1 <0>         0.1249
     41 H8          2.3851    4.1110   -1.5221 H         1 <0>         0.3781
     42 H9          8.3035    7.4976   -3.1827 H         1 <0>         0.1454
     43 H10         7.5205    8.8911   -5.0260 H         1 <0>         0.1389
     44 H11         3.7278    6.8903   -4.9780 H         1 <0>         0.1426
     45 H12         6.2379   10.4080   -5.7374 H         1 <0>         0.4457
     46 H13         3.8734    7.4588   -7.0066 H         1 <0>         0.4464
     47 H14         3.9168    8.9179   -7.8385 H         1 <0>         0.4277
     48 H15         6.5838    1.0958    2.4961 H         1 <0>         0.0763
     49 H16         7.9231    0.6284    0.4225 H         1 <0>         0.0381
     50 H17         8.6293    2.2571    0.5529 H         1 <0>         0.0396
     51 H18         5.2850   10.6244   -7.1041 H         1 <0>         0.4276
@<TRIPOS>BOND
     1    1    6 ar
     2    1    2 ar
     3    1   35 1
     4    2    3 ar
     5    2   36 1
     6    3    4 ar
     7    3    7 1
     8    4    5 ar
     9    4   37 1
    10    5    6 ar
    11    6   38 1
    12    7   12 ar
    13    7    8 ar
    14    8    9 ar
    15    8   39 1
    16    9   10 ar
    17    9   27 1
    18   10   11 ar
    19   10   40 1
    20   11   12 ar
    21   11   14 1
    22   12   13 1
    23   13   41 1
    24   14   23 2
    25   14   15 1
    26   15   16 1
    27   15   17 1
    28   17   22 ar
    29   17   18 ar
    30   18   19 ar
    31   18   42 1
    32   19   20 ar
    33   19   43 1
    34   20   21 ar
    35   20   24 1
    36   21   22 ar
    37   21   44 1
    38   22   23 1
    39   24   25 2
    40   24   26 1
    41   25   45 1
    42   25   51 1
    43   26   46 1
    44   26   47 1
    45   27   28 1
    46   27   32 1
    47   27   48 1
    48   28   29 1
    49   28   49 1
    50   28   50 1
    51   29   30 2
    52   29   31 1
    53   32   33 2
    54   32   34 1
@<TRIPOS>MOLECULE
CHEMBL122599
   61    63     0     0     0
SMALL
USER_CHARGES

@<TRIPOS>ATOM
      1 C1         -0.0197    1.5043   -0.0106 C.3       1 <0>        -0.1601
      2 C2          0.0007   -0.0256   -0.0066 C.3       1 <0>         0.1908
      3 C3         -1.4133   -0.5468    0.0092 C.ar      1 <0>        -0.1379
      4 C4         -2.1227   -0.5817    1.1955 C.ar      1 <0>        -0.0739
      5 C5         -3.4188   -1.0594    1.2128 C.ar      1 <0>        -0.1455
      6 C6         -4.0087   -1.5039    0.0384 C.ar      1 <0>         0.1372
      7 C7         -3.2949   -1.4674   -1.1506 C.ar      1 <0>        -0.2040
      8 C8         -2.0008   -0.9839   -1.1635 C.ar      1 <0>        -0.0624
      9 O1         -5.2834   -1.9747    0.0529 O.3       1 <0>        -0.3065
     10 C9         -5.8264   -2.4155   -1.1933 C.3       1 <0>         0.1025
     11 C10        -7.2379   -2.8996   -0.9831 C.ar      1 <0>        -0.0881
     12 C11        -7.4745   -4.2252   -0.6691 C.ar      1 <0>        -0.0905
     13 C12        -8.7689   -4.6699   -0.4762 C.ar      1 <0>        -0.1081
     14 C13        -9.8278   -3.7896   -0.5975 C.ar      1 <0>        -0.0977
     15 C14        -9.5917   -2.4633   -0.9116 C.ar      1 <0>        -0.0378
     16 C15        -8.2952   -2.0173   -1.0986 C.ar      1 <0>        -0.0860
     17 Cl1       -10.9210   -1.3571   -1.0641 Cl        1 <0>        -0.0617
     18 N1          0.7099   -0.5014    1.1837 N.am      1 <0>        -0.7157
     19 C16         2.0530   -0.6123    1.1686 C.2       1 <0>         0.5113
     20 O2          2.6745   -0.3182    0.1695 O.2       1 <0>        -0.5343
     21 C17         2.7825   -1.1017    2.3930 C.3       1 <0>         0.1154
     22 N2          4.2222   -1.1325    2.1240 N.am      1 <0>        -0.7197
     23 C18         5.0782   -1.5401    3.0819 C.2       1 <0>         0.7102
     24 O3          4.6556   -1.8822    4.1693 O.2       1 <0>        -0.5655
     25 N3          6.4028   -1.5685    2.8343 N.am      1 <0>        -0.6839
     26 C19         7.2959   -1.8977    3.8538 C.ar      1 <0>         0.2467
     27 C20         6.9410   -2.8456    4.8082 C.ar      1 <0>        -0.1245
     28 C21         7.8204   -3.1724    5.8161 C.ar      1 <0>        -0.0327
     29 C22         9.0700   -2.5515    5.8794 C.ar      1 <0>        -0.1855
     30 C23         9.4235   -1.6004    4.9193 C.ar      1 <0>        -0.0306
     31 C24         8.5419   -1.2817    3.9109 C.ar      1 <0>        -0.1495
     32 C25        10.0156   -2.8995    6.9598 C.cat     1 <0>         0.6033
     33 N4         11.2073   -2.3063    7.0189 N.pl3     1 <0>        -0.7664
     34 N5          9.6768   -3.8066    7.8752 N.pl3     1 <0>        -0.7653
     35 H1          1.0030    1.8812   -0.0221 H         1 <0>         0.0641
     36 H2         -0.5474    1.8583   -0.8963 H         1 <0>         0.0721
     37 H3         -0.5292    1.8632    0.8836 H         1 <0>         0.0613
     38 H4          0.5102   -0.3845   -0.9008 H         1 <0>         0.0987
     39 H5         -1.6630   -0.2355    2.1095 H         1 <0>         0.1272
     40 H6         -3.9723   -1.0871    2.1397 H         1 <0>         0.1344
     41 H7         -3.7519   -1.8129   -2.0662 H         1 <0>         0.1321
     42 H8         -1.4463   -0.9512   -2.0897 H         1 <0>         0.1289
     43 H9         -5.8280   -1.5875   -1.9022 H         1 <0>         0.0762
     44 H10        -5.2179   -3.2297   -1.5870 H         1 <0>         0.0771
     45 H11        -6.6476   -4.9135   -0.5750 H         1 <0>         0.1316
     46 H12        -8.9530   -5.7054   -0.2310 H         1 <0>         0.1377
     47 H13       -10.8392   -4.1374   -0.4474 H         1 <0>         0.1380
     48 H14        -8.1100   -0.9809   -1.3395 H         1 <0>         0.1358
     49 H15         0.2128   -0.7366    1.9828 H         1 <0>         0.4044
     50 H16         2.5832   -0.4295    3.2276 H         1 <0>         0.1062
     51 H17         2.4383   -2.1049    2.6443 H         1 <0>         0.1063
     52 H18         4.5594   -0.8596    1.2564 H         1 <0>         0.4146
     53 H19         6.7349   -1.3599    1.9471 H         1 <0>         0.4206
     54 H20         5.9747   -3.3254    4.7587 H         1 <0>         0.1647
     55 H21         7.5440   -3.9079    6.5571 H         1 <0>         0.1402
     56 H22        10.3890   -1.1186    4.9656 H         1 <0>         0.1412
     57 H23         8.8162   -0.5494    3.1659 H         1 <0>         0.1515
     58 H24        11.8282   -2.5348    7.7283 H         1 <0>         0.4323
     59 H25         8.8092   -4.2384    7.8322 H         1 <0>         0.4438
     60 H26        10.2976   -4.0351    8.5846 H         1 <0>         0.4323
     61 H27        11.4539   -1.6459    6.3525 H         1 <0>         0.4431
@<TRIPOS>BOND
     1    1    2 1
     2    1   35 1
     3    1   36 1
     4    1   37 1
     5    2    3 1
     6    2   18 1
     7    2   38 1
     8    3    8 ar
     9    3    4 ar
    10    4    5 ar
    11    4   39 1
    12    5    6 ar
    13    5   40 1
    14    6    7 ar
    15    6    9 1
    16    7    8 ar
    17    7   41 1
    18    8   42 1
    19    9   10 1
    20   10   11 1
    21   10   43 1
    22   10   44 1
    23   11   16 ar
    24   11   12 ar
    25   12   13 ar
    26   12   45 1
    27   13   14 ar
    28   13   46 1
    29   14   15 ar
    30   14   47 1
    31   15   16 ar
    32   15   17 1
    33   16   48 1
    34   18   19 am
    35   18   49 1
    36   19   20 2
    37   19   21 1
    38   21   22 1
    39   21   50 1
    40   21   51 1
    41   22   23 am
    42   22   52 1
    43   23   24 2
    44   23   25 am
    45   25   26 1
    46   25   53 1
    47   26   31 ar
    48   26   27 ar
    49   27   28 ar
    50   27   54 1
    51   28   29 ar
    52   28   55 1
    53   29   30 ar
    54   29   32 1
    55   30   31 ar
    56   30   56 1
    57   31   57 1
    58   32   33 2
    59   32   34 1
    60   33   58 1
    61   33   61 1
    62   34   59 1
    63   34   60 1
@<TRIPOS>MOLECULE
CHEMBL122599__1
   61    63     0     0     0
SMALL
USER_CHARGES

@<TRIPOS>ATOM
      1 C1         -0.0367    1.5475    0.0184 C.3       1 <0>        -0.1598
      2 C2         -0.0054    0.0179    0.0034 C.3       1 <0>         0.1907
      3 C3          0.7281   -0.4816    1.2214 C.ar      1 <0>        -0.1378
      4 C4          0.0784   -0.5460    2.4402 C.ar      1 <0>        -0.0740
      5 C5          0.7488   -1.0031    3.5583 C.ar      1 <0>        -0.1454
      6 C6          2.0749   -1.3980    3.4573 C.ar      1 <0>         0.1371
      7 C7          2.7244   -1.3328    2.2332 C.ar      1 <0>        -0.2039
      8 C8          2.0481   -0.8799    1.1170 C.ar      1 <0>        -0.0625
      9 O1          2.7367   -1.8475    4.5559 O.3       1 <0>        -0.3065
     10 C9          4.0999   -2.2372    4.3777 C.3       1 <0>         0.1026
     11 C10         4.6651   -2.7042    5.6944 C.ar      1 <0>        -0.0881
     12 C11         5.2709   -1.7994    6.5465 C.ar      1 <0>        -0.0899
     13 C12         5.7894   -2.2270    7.7542 C.ar      1 <0>        -0.1076
     14 C13         5.7030   -3.5598    8.1107 C.ar      1 <0>        -0.0976
     15 C14         5.0970   -4.4655    7.2587 C.ar      1 <0>        -0.0381
     16 C15         4.5727   -4.0357    6.0524 C.ar      1 <0>        -0.0864
     17 Cl1         4.9881   -6.1395    7.7057 Cl        1 <0>        -0.0627
     18 N1         -1.3763   -0.4987    0.0130 N.am      1 <0>        -0.7159
     19 C16        -2.0551   -0.6299   -1.1439 C.2       1 <0>         0.5113
     20 O2         -1.5311   -0.3204   -2.1929 O.2       1 <0>        -0.5343
     21 C17        -3.4653   -1.1613   -1.1340 C.3       1 <0>         0.1153
     22 N2         -3.9793   -1.2076   -2.5051 N.am      1 <0>        -0.7197
     23 C18        -5.2295   -1.6524   -2.7414 C.2       1 <0>         0.7102
     24 O3         -5.9306   -2.0152   -1.8167 O.2       1 <0>        -0.5656
     25 N3         -5.7024   -1.6950   -4.0027 N.am      1 <0>        -0.6839
     26 C19        -6.9588   -2.2442   -4.2583 C.ar      1 <0>         0.2467
     27 C20        -7.9893   -2.0771   -3.3390 C.ar      1 <0>        -0.1244
     28 C21        -9.2306   -2.6184   -3.5882 C.ar      1 <0>        -0.0327
     29 C22        -9.4546   -3.3355   -4.7658 C.ar      1 <0>        -0.1855
     30 C23        -8.4179   -3.5011   -5.6872 C.ar      1 <0>        -0.0306
     31 C24        -7.1802   -2.9530   -5.4347 C.ar      1 <0>        -0.1495
     32 C25       -10.7851   -3.9180   -5.0360 C.cat     1 <0>         0.6033
     33 N4        -10.9973   -4.6018   -6.1599 N.pl3     1 <0>        -0.7664
     34 N5        -11.7730   -3.7596   -4.1560 N.pl3     1 <0>        -0.7653
     35 H1          0.9833    1.9318    0.0113 H         1 <0>         0.0720
     36 H2         -0.5673    1.9087   -0.8625 H         1 <0>         0.0642
     37 H3         -0.5483    1.8916    0.9172 H         1 <0>         0.0613
     38 H4          0.5062   -0.3263   -0.8954 H         1 <0>         0.0987
     39 H5         -0.9539   -0.2385    2.5182 H         1 <0>         0.1272
     40 H6          0.2411   -1.0526    4.5102 H         1 <0>         0.1344
     41 H7          3.7567   -1.6396    2.1521 H         1 <0>         0.1321
     42 H8          2.5519   -0.8331    0.1629 H         1 <0>         0.1289
     43 H9          4.1542   -3.0478    3.6511 H         1 <0>         0.0756
     44 H10         4.6768   -1.3859    4.0162 H         1 <0>         0.0777
     45 H11         5.3392   -0.7582    6.2680 H         1 <0>         0.1323
     46 H12         6.2625   -1.5198    8.4194 H         1 <0>         0.1382
     47 H13         6.1088   -3.8940    9.0541 H         1 <0>         0.1380
     48 H14         4.0955   -4.7416    5.3887 H         1 <0>         0.1352
     49 H15        -1.7954   -0.7462    0.8520 H         1 <0>         0.4044
     50 H16        -3.4724   -2.1651   -0.7092 H         1 <0>         0.1061
     51 H17        -4.0958   -0.5074   -0.5315 H         1 <0>         0.1065
     52 H18        -3.4200   -0.9182   -3.2428 H         1 <0>         0.4146
     53 H19        -5.1690   -1.3438   -4.7328 H         1 <0>         0.4206
     54 H20        -7.8156   -1.5226   -2.4286 H         1 <0>         0.1647
     55 H21       -10.0301   -2.4890   -2.8737 H         1 <0>         0.1402
     56 H22        -8.5880   -4.0550   -6.5986 H         1 <0>         0.1412
     57 H23        -6.3794   -3.0772   -6.1485 H         1 <0>         0.1515
     58 H24       -11.8708   -4.9843   -6.3373 H         1 <0>         0.4323
     59 H25       -11.6186   -3.2618   -3.3379 H         1 <0>         0.4438
     60 H26       -12.6466   -4.1420   -4.3334 H         1 <0>         0.4323
     61 H27       -10.2781   -4.7172   -6.8005 H         1 <0>         0.4431
@<TRIPOS>BOND
     1    1    2 1
     2    1   35 1
     3    1   36 1
     4    1   37 1
     5    2    3 1
     6    2   18 1
     7    2   38 1
     8    3    8 ar
     9    3    4 ar
    10    4    5 ar
    11    4   39 1
    12    5    6 ar
    13    5   40 1
    14    6    7 ar
    15    6    9 1
    16    7    8 ar
    17    7   41 1
    18    8   42 1
    19    9   10 1
    20   10   11 1
    21   10   43 1
    22   10   44 1
    23   11   16 ar
    24   11   12 ar
    25   12   13 ar
    26   12   45 1
    27   13   14 ar
    28   13   46 1
    29   14   15 ar
    30   14   47 1
    31   15   16 ar
    32   15   17 1
    33   16   48 1
    34   18   19 am
    35   18   49 1
    36   19   20 2
    37   19   21 1
    38   21   22 1
    39   21   50 1
    40   21   51 1
    41   22   23 am
    42   22   52 1
    43   23   24 2
    44   23   25 am
    45   25   26 1
    46   25   53 1
    47   26   31 ar
    48   26   27 ar
    49   27   28 ar
    50   27   54 1
    51   28   29 ar
    52   28   55 1
    53   29   30 ar
    54   29   32 1
    55   30   31 ar
    56   30   56 1
    57   31   57 1
    58   32   33 2
    59   32   34 1
    60   33   58 1
    61   33   61 1
    62   34   59 1
    63   34   60 1
@<TRIPOS>MOLECULE
CHEMBL35586
   47    48     0     0     0
SMALL
USER_CHARGES

@<TRIPOS>ATOM
      1 C1         -0.0367    1.5475    0.0184 C.3       1 <0>        -0.1605
      2 C2         -0.0054    0.0179    0.0034 C.3       1 <0>         0.1866
      3 H1          0.5062   -0.3263   -0.8954 H         1 <0>         0.1027
      4 C3          0.7281   -0.4816    1.2214 C.ar      1 <0>        -0.0927
      5 C4          0.0794   -0.5465    2.4406 C.ar      1 <0>        -0.1014
      6 C5          0.7518   -1.0045    3.5581 C.ar      1 <0>        -0.1062
      7 C6          2.0732   -1.3979    3.4571 C.ar      1 <0>        -0.0861
      8 C7          2.7223   -1.3335    2.2376 C.ar      1 <0>        -0.0856
      9 C8          2.0474   -0.8800    1.1182 C.ar      1 <0>        -0.0779
     10 Br1         4.5301   -1.8708    2.0989 Br        1 <0>        -0.0395
     11 N1         -1.3763   -0.4987    0.0130 N.am      1 <0>        -0.7169
     12 C9         -2.0551   -0.6299   -1.1439 C.2       1 <0>         0.5121
     13 O1         -1.5311   -0.3204   -2.1929 O.2       1 <0>        -0.5319
     14 C10        -3.4653   -1.1613   -1.1340 C.3       1 <0>         0.1160
     15 N2         -3.9793   -1.2076   -2.5051 N.am      1 <0>        -0.7201
     16 C11        -5.2295   -1.6524   -2.7414 C.2       1 <0>         0.7105
     17 O2         -5.9306   -2.0152   -1.8167 O.2       1 <0>        -0.5656
     18 N3         -5.7024   -1.6950   -4.0027 N.am      1 <0>        -0.6838
     19 C12        -6.9588   -2.2442   -4.2583 C.ar      1 <0>         0.2464
     20 C13        -7.9893   -2.0771   -3.3390 C.ar      1 <0>        -0.1244
     21 C14        -9.2306   -2.6184   -3.5882 C.ar      1 <0>        -0.0328
     22 C15        -9.4546   -3.3355   -4.7658 C.ar      1 <0>        -0.1852
     23 C16        -8.4179   -3.5011   -5.6872 C.ar      1 <0>        -0.0306
     24 C17        -7.1802   -2.9530   -5.4347 C.ar      1 <0>        -0.1493
     25 C18       -10.7851   -3.9180   -5.0360 C.cat     1 <0>         0.6033
     26 N4        -10.9973   -4.6018   -6.1599 N.pl3     1 <0>        -0.7663
     27 N5        -11.7730   -3.7596   -4.1560 N.pl3     1 <0>        -0.7652
     28 H2          0.9833    1.9318    0.0113 H         1 <0>         0.0738
     29 H3         -0.5673    1.9087   -0.8625 H         1 <0>         0.0676
     30 H4         -0.5483    1.8916    0.9172 H         1 <0>         0.0626
     31 H5         -0.9528   -0.2390    2.5200 H         1 <0>         0.1277
     32 H6          0.2448   -1.0548    4.5104 H         1 <0>         0.1367
     33 H7          2.5986   -1.7550    4.3304 H         1 <0>         0.1368
     34 H8          2.5528   -0.8331    0.1650 H         1 <0>         0.1362
     35 H9         -1.7954   -0.7462    0.8520 H         1 <0>         0.4048
     36 H10        -3.4724   -2.1651   -0.7092 H         1 <0>         0.1064
     37 H11        -4.0958   -0.5074   -0.5315 H         1 <0>         0.1069
     38 H12        -3.4200   -0.9182   -3.2428 H         1 <0>         0.4148
     39 H13        -5.1690   -1.3438   -4.7328 H         1 <0>         0.4207
     40 H14        -7.8156   -1.5226   -2.4286 H         1 <0>         0.1646
     41 H15       -10.0301   -2.4890   -2.8737 H         1 <0>         0.1403
     42 H16        -8.5880   -4.0550   -6.5986 H         1 <0>         0.1413
     43 H17        -6.3794   -3.0772   -6.1485 H         1 <0>         0.1516
     44 H18       -11.8708   -4.9843   -6.3373 H         1 <0>         0.4324
     45 H19       -11.6186   -3.2618   -3.3379 H         1 <0>         0.4438
     46 H20       -12.6466   -4.1420   -4.3334 H         1 <0>         0.4324
     47 H21       -10.2781   -4.7172   -6.8005 H         1 <0>         0.4431
@<TRIPOS>BOND
     1    1    2 1
     2    1   28 1
     3    1   29 1
     4    1   30 1
     5    2    3 1
     6    2    4 1
     7    2   11 1
     8    4    9 ar
     9    4    5 ar
    10    5    6 ar
    11    5   31 1
    12    6    7 ar
    13    6   32 1
    14    7    8 ar
    15    7   33 1
    16    8    9 ar
    17    8   10 1
    18    9   34 1
    19   11   12 am
    20   11   35 1
    21   12   13 2
    22   12   14 1
    23   14   15 1
    24   14   36 1
    25   14   37 1
    26   15   16 am
    27   15   38 1
    28   16   17 2
    29   16   18 am
    30   18   19 1
    31   18   39 1
    32   19   24 ar
    33   19   20 ar
    34   20   21 ar
    35   20   40 1
    36   21   22 ar
    37   21   41 1
    38   22   23 ar
    39   22   25 1
    40   23   24 ar
    41   23   42 1
    42   24   43 1
    43   25   26 2
    44   25   27 1
    45   26   44 1
    46   26   47 1
    47   27   45 1
    48   27   46 1
@<TRIPOS>MOLECULE
CHEMBL198631
   56    58     0     0     0
SMALL
USER_CHARGES

@<TRIPOS>ATOM
      1 C1         -0.0187    1.5258    0.0104 C.3       1 <0>        -0.1500
      2 C2          0.0021   -0.0041    0.0020 C.3       1 <0>         0.0513
      3 O1          0.6709   -0.4649   -1.1737 O.3       1 <0>        -0.3039
      4 C3          0.7768   -1.8109   -1.3363 C.ar      1 <0>         0.1071
      5 C4          0.2435   -2.6690   -0.3879 C.ar      1 <0>        -0.1561
      6 C5          0.3516   -4.0370   -0.5549 C.ar      1 <0>        -0.0654
      7 C6          0.9916   -4.5523   -1.6668 C.ar      1 <0>        -0.1071
      8 C7          1.5263   -3.7019   -2.6164 C.ar      1 <0>        -0.1686
      9 C8          1.4160   -2.3297   -2.4582 C.ar      1 <0>         0.0967
     10 O2          1.9361   -1.4917   -3.3945 O.3       1 <0>        -0.2971
     11 C9          2.5780   -2.0947   -4.5199 C.3       1 <0>         0.0998
     12 C10         3.0884   -1.0186   -5.4433 C.ar      1 <0>        -0.0936
     13 C11         2.2781   -0.5319   -6.4520 C.ar      1 <0>        -0.0953
     14 C12         2.7463    0.4551   -7.2990 C.ar      1 <0>        -0.1244
     15 C13         4.0245    0.9558   -7.1370 C.ar      1 <0>        -0.1110
     16 C14         4.8345    0.4698   -6.1277 C.ar      1 <0>        -0.1231
     17 C15         4.3648   -0.5143   -5.2780 C.ar      1 <0>        -0.0941
     18 C16        -0.2290   -4.9686    0.4775 C.3       1 <0>         0.1016
     19 C17         0.8696   -5.4618    1.3836 C.2       1 <0>         0.4943
     20 O3          1.1488   -4.8425    2.3961 O.co2     1 <0>        -0.6744
     21 O4          1.4792   -6.4800    1.1042 O.co2     1 <0>        -0.6697
     22 N1         -0.8581   -6.1093   -0.1928 N.pl3     1 <0>        -0.6585
     23 C18        -1.8780   -6.8122    0.4403 C.ar      1 <0>         0.3052
     24 C19        -2.3037   -6.4270    1.7083 C.ar      1 <0>        -0.1979
     25 C20        -3.3130   -7.1204    2.3370 C.ar      1 <0>        -0.0012
     26 C21        -3.9103   -8.2118    1.7011 C.ar      1 <0>        -0.2553
     27 C22        -3.4808   -8.5961    0.4283 C.ar      1 <0>        -0.0024
     28 C23        -2.4747   -7.8958   -0.1977 C.ar      1 <0>        -0.2065
     29 C24        -4.9930   -8.9579    2.3732 C.cat     1 <0>         0.6019
     30 N2         -5.5618   -9.9988    1.7655 N.pl3     1 <0>        -0.7831
     31 N3         -5.4013   -8.5905    3.5875 N.pl3     1 <0>        -0.7813
     32 H1          1.0039    1.9031    0.0027 H         1 <0>         0.0665
     33 H2         -0.5459    1.8868   -0.8726 H         1 <0>         0.0645
     34 H3         -0.5289    1.8773    0.9072 H         1 <0>         0.0773
     35 H4          0.5293   -0.3651    0.8851 H         1 <0>         0.0647
     36 H5         -1.0205   -0.3814    0.0098 H         1 <0>         0.0591
     37 H6         -0.2563   -2.2690    0.4819 H         1 <0>         0.1365
     38 H7          1.0743   -5.6217   -1.7935 H         1 <0>         0.1262
     39 H8          2.0261   -4.1070   -3.4839 H         1 <0>         0.1353
     40 H9          3.4131   -2.7058   -4.1775 H         1 <0>         0.0710
     41 H10         1.8634   -2.7219   -5.0528 H         1 <0>         0.0695
     42 H11         1.2794   -0.9231   -6.5785 H         1 <0>         0.1232
     43 H12         2.1135    0.8349   -8.0875 H         1 <0>         0.1244
     44 H13         4.3905    1.7265   -7.7992 H         1 <0>         0.1236
     45 H14         5.8333    0.8607   -6.0014 H         1 <0>         0.1252
     46 H15         4.9962   -0.8914   -4.4872 H         1 <0>         0.1248
     47 H16        -0.9756   -4.4371    1.0677 H         1 <0>         0.0929
     48 H17        -0.5634   -6.3745   -1.0781 H         1 <0>         0.4074
     49 H18        -1.8415   -5.5836    2.1995 H         1 <0>         0.1460
     50 H19        -3.6427   -6.8213    3.3210 H         1 <0>         0.1288
     51 H20        -3.9404   -9.4396   -0.0654 H         1 <0>         0.1280
     52 H21        -2.1454   -8.1897   -1.1834 H         1 <0>         0.1393
     53 H22        -5.2646  -10.2662    0.8818 H         1 <0>         0.4392
     54 H23        -4.9873   -7.8329    4.0298 H         1 <0>         0.4407
     55 H24        -6.1125   -9.0806    4.0290 H         1 <0>         0.4240
     56 H25        -6.2730  -10.4889    2.2070 H         1 <0>         0.4239
@<TRIPOS>BOND
     1    1    2 1
     2    1   32 1
     3    1   33 1
     4    1   34 1
     5    2    3 1
     6    2   35 1
     7    2   36 1
     8    3    4 1
     9    4    9 ar
    10    4    5 ar
    11    5    6 ar
    12    5   37 1
    13    6    7 ar
    14    6   18 1
    15    7    8 ar
    16    7   38 1
    17    8    9 ar
    18    8   39 1
    19    9   10 1
    20   10   11 1
    21   11   12 1
    22   11   40 1
    23   11   41 1
    24   12   17 ar
    25   12   13 ar
    26   13   14 ar
    27   13   42 1
    28   14   15 ar
    29   14   43 1
    30   15   16 ar
    31   15   44 1
    32   16   17 ar
    33   16   45 1
    34   17   46 1
    35   18   19 1
    36   18   22 1
    37   18   47 1
    38   19   20 2
    39   19   21 1
    40   22   23 1
    41   22   48 1
    42   23   28 ar
    43   23   24 ar
    44   24   25 ar
    45   24   49 1
    46   25   26 ar
    47   25   50 1
    48   26   27 ar
    49   26   29 1
    50   27   28 ar
    51   27   51 1
    52   28   52 1
    53   29   30 2
    54   29   31 1
    55   30   53 1
    56   30   56 1
    57   31   54 1
    58   31   55 1
@<TRIPOS>MOLECULE
CHEMBL198631__1
   56    58     0     0     0
SMALL
USER_CHARGES

@<TRIPOS>ATOM
      1 C1         -0.0187    1.5258    0.0104 C.3       1 <0>        -0.1500
      2 C2          0.0021   -0.0041    0.0020 C.3       1 <0>         0.0513
      3 O1          0.6709   -0.4649   -1.1737 O.3       1 <0>        -0.3039
      4 C3          0.7768   -1.8109   -1.3363 C.ar      1 <0>         0.1080
      5 C4          0.2435   -2.6690   -0.3879 C.ar      1 <0>        -0.1519
      6 C5          0.3516   -4.0370   -0.5549 C.ar      1 <0>        -0.0604
      7 C6          0.9916   -4.5523   -1.6668 C.ar      1 <0>        -0.1133
      8 C7          1.5263   -3.7019   -2.6164 C.ar      1 <0>        -0.1679
      9 C8          1.4160   -2.3297   -2.4582 C.ar      1 <0>         0.0963
     10 O2          1.9361   -1.4917   -3.3945 O.3       1 <0>        -0.2971
     11 C9          2.5780   -2.0947   -4.5199 C.3       1 <0>         0.0998
     12 C10         3.0884   -1.0186   -5.4433 C.ar      1 <0>        -0.0936
     13 C11         2.2781   -0.5319   -6.4520 C.ar      1 <0>        -0.0941
     14 C12         2.7463    0.4551   -7.2990 C.ar      1 <0>        -0.1231
     15 C13         4.0245    0.9558   -7.1370 C.ar      1 <0>        -0.1110
     16 C14         4.8345    0.4698   -6.1277 C.ar      1 <0>        -0.1245
     17 C15         4.3648   -0.5143   -5.2780 C.ar      1 <0>        -0.0954
     18 C16        -0.2290   -4.9686    0.4775 C.3       1 <0>         0.1000
     19 C17        -1.5608   -5.4844   -0.0036 C.2       1 <0>         0.4928
     20 O3         -1.6797   -6.6528   -0.3312 O.co2     1 <0>        -0.6715
     21 O4         -2.5192   -4.7334   -0.0653 O.co2     1 <0>        -0.6710
     22 N1          0.6840   -6.0950    0.6874 N.pl3     1 <0>        -0.6570
     23 C18         0.6673   -6.7885    1.8932 C.ar      1 <0>         0.3113
     24 C19        -0.2214   -6.4148    2.8972 C.ar      1 <0>        -0.1953
     25 C20        -0.2405   -7.0995    4.0911 C.ar      1 <0>        -0.0019
     26 C21         0.6334   -8.1705    4.2947 C.ar      1 <0>        -0.2559
     27 C22         1.5244   -8.5434    3.2851 C.ar      1 <0>        -0.0024
     28 C23         1.5353   -7.8584    2.0912 C.ar      1 <0>        -0.2067
     29 C24         0.6157   -8.9068    5.5747 C.cat     1 <0>         0.6017
     30 N2          1.4498   -9.9282    5.7676 N.pl3     1 <0>        -0.7834
     31 N3         -0.2344   -8.5498    6.5371 N.pl3     1 <0>        -0.7818
     32 H1          1.0039    1.9031    0.0027 H         1 <0>         0.0644
     33 H2         -0.5459    1.8868   -0.8726 H         1 <0>         0.0666
     34 H3         -0.5289    1.8773    0.9072 H         1 <0>         0.0772
     35 H4          0.5293   -0.3651    0.8851 H         1 <0>         0.0588
     36 H5         -1.0205   -0.3814    0.0098 H         1 <0>         0.0652
     37 H6         -0.2563   -2.2690    0.4819 H         1 <0>         0.1361
     38 H7          1.0743   -5.6217   -1.7935 H         1 <0>         0.1239
     39 H8          2.0261   -4.1070   -3.4839 H         1 <0>         0.1350
     40 H9          3.4131   -2.7058   -4.1775 H         1 <0>         0.0693
     41 H10         1.8634   -2.7219   -5.0528 H         1 <0>         0.0709
     42 H11         1.2794   -0.9231   -6.5785 H         1 <0>         0.1249
     43 H12         2.1135    0.8349   -8.0875 H         1 <0>         0.1252
     44 H13         4.3905    1.7265   -7.7992 H         1 <0>         0.1236
     45 H14         5.8333    0.8607   -6.0014 H         1 <0>         0.1244
     46 H15         4.9962   -0.8914   -4.4872 H         1 <0>         0.1232
     47 H16        -0.3651   -4.4314    1.4162 H         1 <0>         0.0931
     48 H17         1.3001   -6.3571   -0.0144 H         1 <0>         0.4063
     49 H18        -0.8964   -5.5866    2.7394 H         1 <0>         0.1423
     50 H19        -0.9300   -6.8089    4.8699 H         1 <0>         0.1281
     51 H20         2.2012   -9.3706    3.4398 H         1 <0>         0.1276
     52 H21         2.2207   -8.1490    1.3088 H         1 <0>         0.1387
     53 H22         2.0685  -10.1880    5.0672 H         1 <0>         0.4391
     54 H23        -0.8415   -7.8064    6.3967 H         1 <0>         0.4405
     55 H24        -0.2461   -9.0334    7.3779 H         1 <0>         0.4238
     56 H25         1.4381  -10.4118    6.6083 H         1 <0>         0.4237
@<TRIPOS>BOND
     1    1    2 1
     2    1   32 1
     3    1   33 1
     4    1   34 1
     5    2    3 1
     6    2   35 1
     7    2   36 1
     8    3    4 1
     9    4    9 ar
    10    4    5 ar
    11    5    6 ar
    12    5   37 1
    13    6    7 ar
    14    6   18 1
    15    7    8 ar
    16    7   38 1
    17    8    9 ar
    18    8   39 1
    19    9   10 1
    20   10   11 1
    21   11   12 1
    22   11   40 1
    23   11   41 1
    24   12   17 ar
    25   12   13 ar
    26   13   14 ar
    27   13   42 1
    28   14   15 ar
    29   14   43 1
    30   15   16 ar
    31   15   44 1
    32   16   17 ar
    33   16   45 1
    34   17   46 1
    35   18   19 1
    36   18   22 1
    37   18   47 1
    38   19   20 2
    39   19   21 1
    40   22   23 1
    41   22   48 1
    42   23   28 ar
    43   23   24 ar
    44   24   25 ar
    45   24   49 1
    46   25   26 ar
    47   25   50 1
    48   26   27 ar
    49   26   29 1
    50   27   28 ar
    51   27   51 1
    52   28   52 1
    53   29   30 2
    54   29   31 1
    55   30   53 1
    56   30   56 1
    57   31   54 1
    58   31   55 1
@<TRIPOS>MOLECULE
CHEMBL122548
   61    63     0     0     0
SMALL
USER_CHARGES

@<TRIPOS>ATOM
      1 C1          0.5036    2.0498   -0.0225 C.3       1 <0>        -0.1612
      2 C2          0.3952    0.5260    0.0613 C.3       1 <0>         0.1823
      3 C3         -1.0539    0.1316    0.1867 C.ar      1 <0>        -0.0694
      4 C4         -1.6869    0.2161    1.4142 C.ar      1 <0>        -0.1216
      5 C5         -3.0132   -0.1433    1.5359 C.ar      1 <0>        -0.0496
      6 C6         -3.7167   -0.5931    0.4173 C.ar      1 <0>        -0.1310
      7 C7         -3.0720   -0.6760   -0.8181 C.ar      1 <0>        -0.0787
      8 C8         -1.7469   -0.3081   -0.9272 C.ar      1 <0>        -0.1108
      9 C9         -5.1379   -0.9804    0.5404 C.2       1 <0>         0.5581
     10 O1         -5.6965   -0.9076    1.6176 O.2       1 <0>        -0.5125
     11 N1         -5.8143   -1.4143   -0.5415 N.am      1 <0>        -0.6686
     12 C10        -7.1285   -1.8729   -0.4070 C.ar      1 <0>         0.1372
     13 C11        -7.5792   -2.9319   -1.1846 C.ar      1 <0>        -0.1431
     14 C12        -8.8775   -3.3826   -1.0489 C.ar      1 <0>        -0.1016
     15 C13        -9.7287   -2.7805   -0.1405 C.ar      1 <0>        -0.1303
     16 C14        -9.2833   -1.7257    0.6349 C.ar      1 <0>        -0.1019
     17 C15        -7.9843   -1.2741    0.5085 C.ar      1 <0>        -0.1189
     18 N2          1.1346    0.0474    1.2319 N.am      1 <0>        -0.7173
     19 C16         2.4600   -0.1809    1.1447 C.2       1 <0>         0.5127
     20 O2          3.0406    0.0098    0.0971 O.2       1 <0>        -0.5324
     21 C17         3.2207   -0.6732    2.3489 C.3       1 <0>         0.1154
     22 N3          4.6331   -0.8424    1.9987 N.am      1 <0>        -0.7201
     23 C18         5.5098   -1.2770    2.9255 C.2       1 <0>         0.7096
     24 O3          5.1285   -1.5286    4.0522 O.2       1 <0>        -0.5638
     25 N4          6.8092   -1.4327    2.6033 N.am      1 <0>        -0.6833
     26 C19         7.6960   -1.9832    3.5284 C.ar      1 <0>         0.2501
     27 C20         7.2568   -2.9633    4.4126 C.ar      1 <0>        -0.1255
     28 C21         8.1297   -3.5084    5.3273 C.ar      1 <0>        -0.0307
     29 C22         9.4576   -3.0767    5.3666 C.ar      1 <0>        -0.1867
     30 C23         9.8957   -2.0928    4.4771 C.ar      1 <0>        -0.0286
     31 C24         9.0193   -1.5553    3.5612 C.ar      1 <0>        -0.1509
     32 C25        10.3966   -3.6592    6.3471 C.cat     1 <0>         0.6035
     33 N5         11.6631   -3.2464    6.3833 N.pl3     1 <0>        -0.7664
     34 N6          9.9772   -4.5974    7.1953 N.pl3     1 <0>        -0.7654
     35 H1          1.5516    2.3351   -0.1132 H         1 <0>         0.0679
     36 H2         -0.0466    2.4059   -0.8934 H         1 <0>         0.0741
     37 H3          0.0829    2.4941    0.8796 H         1 <0>         0.0633
     38 H4          0.8158    0.0817   -0.8408 H         1 <0>         0.1040
     39 H5         -1.1414    0.5640    2.2789 H         1 <0>         0.1304
     40 H6         -3.5061   -0.0772    2.4946 H         1 <0>         0.1419
     41 H7         -3.6106   -1.0235   -1.6873 H         1 <0>         0.1306
     42 H8         -1.2482   -0.3676   -1.8833 H         1 <0>         0.1353
     43 H9         -5.3895   -1.4085   -1.4136 H         1 <0>         0.4101
     44 H10        -6.9151   -3.4020   -1.8947 H         1 <0>         0.1252
     45 H11        -9.2286   -4.2060   -1.6532 H         1 <0>         0.1280
     46 H12       -10.7437   -3.1347   -0.0366 H         1 <0>         0.1254
     47 H13        -9.9507   -1.2574    1.3432 H         1 <0>         0.1274
     48 H14        -7.6357   -0.4531    1.1175 H         1 <0>         0.1381
     49 H15         0.6703   -0.1052    2.0698 H         1 <0>         0.4056
     50 H16         3.1312    0.0528    3.1569 H         1 <0>         0.1070
     51 H17         2.8095   -1.6294    2.6724 H         1 <0>         0.1069
     52 H18         4.9373   -0.6417    1.0997 H         1 <0>         0.4147
     53 H19         7.1277   -1.1618    1.7280 H         1 <0>         0.4206
     54 H20         6.2300   -3.2966    4.3818 H         1 <0>         0.1596
     55 H21         7.7880   -4.2687    6.0140 H         1 <0>         0.1404
     56 H22        10.9218   -1.7570    4.5050 H         1 <0>         0.1415
     57 H23         9.3584   -0.7974    2.8705 H         1 <0>         0.1517
     58 H24        11.9684   -2.5634    5.7659 H         1 <0>         0.4431
     59 H25         9.0553   -4.8979    7.1689 H         1 <0>         0.4437
     60 H26        10.5937   -4.9799    7.8391 H         1 <0>         0.4324
     61 H27        12.2796   -3.6289    7.0271 H         1 <0>         0.4324
@<TRIPOS>BOND
     1    1    2 1
     2    1   35 1
     3    1   36 1
     4    1   37 1
     5    2    3 1
     6    2   18 1
     7    2   38 1
     8    3    8 ar
     9    3    4 ar
    10    4    5 ar
    11    4   39 1
    12    5    6 ar
    13    5   40 1
    14    6    7 ar
    15    6    9 1
    16    7    8 ar
    17    7   41 1
    18    8   42 1
    19    9   10 2
    20    9   11 am
    21   11   12 1
    22   11   43 1
    23   12   17 ar
    24   12   13 ar
    25   13   14 ar
    26   13   44 1
    27   14   15 ar
    28   14   45 1
    29   15   16 ar
    30   15   46 1
    31   16   17 ar
    32   16   47 1
    33   17   48 1
    34   18   19 am
    35   18   49 1
    36   19   20 2
    37   19   21 1
    38   21   22 1
    39   21   50 1
    40   21   51 1
    41   22   23 am
    42   22   52 1
    43   23   24 2
    44   23   25 am
    45   25   26 1
    46   25   53 1
    47   26   31 ar
    48   26   27 ar
    49   27   28 ar
    50   27   54 1
    51   28   29 ar
    52   28   55 1
    53   29   30 ar
    54   29   32 1
    55   30   31 ar
    56   30   56 1
    57   31   57 1
    58   32   33 2
    59   32   34 1
    60   33   58 1
    61   33   61 1
    62   34   59 1
    63   34   60 1
@<TRIPOS>MOLECULE
CHEMBL122548__1
   61    63     0     0     0
SMALL
USER_CHARGES

@<TRIPOS>ATOM
      1 C1         -0.2176    1.1557   -0.2460 C.3       1 <0>        -0.1610
      2 C2         -0.1595   -0.3533   -0.4914 C.3       1 <0>         0.1823
      3 C3          0.6398   -1.0101    0.6044 C.ar      1 <0>        -0.0694
      4 C4          0.0475   -1.2707    1.8274 C.ar      1 <0>        -0.1217
      5 C5          0.7735   -1.8716    2.8348 C.ar      1 <0>        -0.0496
      6 C6          2.1086   -2.2169    2.6181 C.ar      1 <0>        -0.1309
      7 C7          2.7000   -1.9511    1.3820 C.ar      1 <0>        -0.0786
      8 C8          1.9610   -1.3548    0.3812 C.ar      1 <0>        -0.1108
      9 C9          2.8927   -2.8606    3.6932 C.2       1 <0>         0.5581
     10 O1          2.3751   -3.0904    4.7688 O.2       1 <0>        -0.5124
     11 N1          4.1815   -3.1927    3.4808 N.am      1 <0>        -0.6686
     12 C10         4.9514   -3.7115    4.5266 C.ar      1 <0>         0.1371
     13 C11         6.2978   -3.3858    4.6278 C.ar      1 <0>        -0.1427
     14 C12         7.0551   -3.8995    5.6621 C.ar      1 <0>        -0.1013
     15 C13         6.4744   -4.7377    6.5962 C.ar      1 <0>        -0.1302
     16 C14         5.1343   -5.0644    6.4981 C.ar      1 <0>        -0.1022
     17 C15         4.3699   -4.5491    5.4698 C.ar      1 <0>        -0.1191
     18 N2         -1.5189   -0.8996   -0.4989 N.am      1 <0>        -0.7174
     19 C16        -2.2492   -0.8741   -1.6313 C.2       1 <0>         0.5126
     20 O2         -1.7811   -0.3989   -2.6442 O.2       1 <0>        -0.5324
     21 C17        -3.6475   -1.4360   -1.6389 C.3       1 <0>         0.1154
     22 N3         -4.2249   -1.2905   -2.9774 N.am      1 <0>        -0.7201
     23 C18        -5.4766   -1.7262   -3.2224 C.2       1 <0>         0.7095
     24 O3         -6.1265   -2.2399   -2.3325 O.2       1 <0>        -0.5638
     25 N4         -6.0079   -1.5924   -4.4538 N.am      1 <0>        -0.6833
     26 C19        -7.3383   -1.9440   -4.6813 C.ar      1 <0>         0.2501
     27 C20        -8.2866   -1.7567   -3.6809 C.ar      1 <0>        -0.1255
     28 C21        -9.6006   -2.1033   -3.9023 C.ar      1 <0>        -0.0307
     29 C22        -9.9812   -2.6430   -5.1332 C.ar      1 <0>        -0.1867
     30 C23        -9.0267   -2.8295   -6.1359 C.ar      1 <0>        -0.0286
     31 C24        -7.7151   -2.4760   -5.9102 C.ar      1 <0>        -0.1509
     32 C25       -11.3901   -3.0164   -5.3739 C.cat     1 <0>         0.6035
     33 N5        -11.7517   -3.5312   -6.5486 N.pl3     1 <0>        -0.7664
     34 N6        -12.2995   -2.8384   -4.4163 N.pl3     1 <0>        -0.7654
     35 H1          0.7938    1.5621   -0.2405 H         1 <0>         0.0741
     36 H2         -0.7958    1.6307   -1.0387 H         1 <0>         0.0679
     37 H3         -0.6923    1.3494    0.7159 H         1 <0>         0.0632
     38 H4          0.3151   -0.5470   -1.4534 H         1 <0>         0.1040
     39 H5         -0.9854   -1.0027    1.9938 H         1 <0>         0.1302
     40 H6          0.3101   -2.0742    3.7890 H         1 <0>         0.1419
     41 H7          3.7326   -2.2154    1.2080 H         1 <0>         0.1307
     42 H8          2.4161   -1.1527   -0.5771 H         1 <0>         0.1354
     43 H9          4.5751   -3.0718    2.6025 H         1 <0>         0.4101
     44 H10         6.7520   -2.7318    3.8982 H         1 <0>         0.1255
     45 H11         8.1021   -3.6466    5.7414 H         1 <0>         0.1282
     46 H12         7.0690   -5.1384    7.4039 H         1 <0>         0.1254
     47 H13         4.6839   -5.7195    7.2291 H         1 <0>         0.1272
     48 H14         3.3223   -4.8010    5.3962 H         1 <0>         0.1377
     49 H15        -1.8933   -1.2796    0.3113 H         1 <0>         0.4056
     50 H16        -3.6163   -2.4917   -1.3694 H         1 <0>         0.1068
     51 H17        -4.2604   -0.8949   -0.9180 H         1 <0>         0.1071
     52 H18        -3.7064   -0.8806   -3.6874 H         1 <0>         0.4147
     53 H19        -5.4650   -1.2515   -5.1818 H         1 <0>         0.4206
     54 H20        -7.9917   -1.3393   -2.7295 H         1 <0>         0.1597
     55 H21       -10.3363   -1.9583   -3.1250 H         1 <0>         0.1404
     56 H22        -9.3178   -3.2465   -7.0886 H         1 <0>         0.1415
     57 H23        -6.9774   -2.6162   -6.6864 H         1 <0>         0.1517
     58 H24       -11.0897   -3.6608   -7.2457 H         1 <0>         0.4431
     59 H25       -12.0363   -2.4636   -3.5612 H         1 <0>         0.4437
     60 H26       -13.2246   -3.0835   -4.5743 H         1 <0>         0.4324
     61 H27       -12.6768   -3.7763   -6.7066 H         1 <0>         0.4324
@<TRIPOS>BOND
     1    1    2 1
     2    1   35 1
     3    1   36 1
     4    1   37 1
     5    2    3 1
     6    2   18 1
     7    2   38 1
     8    3    8 ar
     9    3    4 ar
    10    4    5 ar
    11    4   39 1
    12    5    6 ar
    13    5   40 1
    14    6    7 ar
    15    6    9 1
    16    7    8 ar
    17    7   41 1
    18    8   42 1
    19    9   10 2
    20    9   11 am
    21   11   12 1
    22   11   43 1
    23   12   17 ar
    24   12   13 ar
    25   13   14 ar
    26   13   44 1
    27   14   15 ar
    28   14   45 1
    29   15   16 ar
    30   15   46 1
    31   16   17 ar
    32   16   47 1
    33   17   48 1
    34   18   19 am
    35   18   49 1
    36   19   20 2
    37   19   21 1
    38   21   22 1
    39   21   50 1
    40   21   51 1
    41   22   23 am
    42   22   52 1
    43   23   24 2
    44   23   25 am
    45   25   26 1
    46   25   53 1
    47   26   31 ar
    48   26   27 ar
    49   27   28 ar
    50   27   54 1
    51   28   29 ar
    52   28   55 1
    53   29   30 ar
    54   29   32 1
    55   30   31 ar
    56   30   56 1
    57   31   57 1
    58   32   33 2
    59   32   34 1
    60   33   58 1
    61   33   61 1
    62   34   59 1
    63   34   60 1
@<TRIPOS>MOLECULE
CHEMBL435972
   65    67     0     0     0
SMALL
USER_CHARGES

@<TRIPOS>ATOM
      1 C1         -0.0359    1.5039    0.0219 C.3       1 <0>        -0.1599
      2 C2         -0.0041   -0.0257    0.0076 C.3       1 <0>         0.1910
      3 C3          0.7292   -0.5244    1.2260 C.ar      1 <0>        -0.1391
      4 C4          2.1117   -0.5245    1.2475 C.ar      1 <0>        -0.0740
      5 C5          2.7863   -0.9816    2.3630 C.ar      1 <0>        -0.1462
      6 C6          2.0755   -1.4402    3.4625 C.ar      1 <0>         0.1383
      7 C7          0.6884   -1.4386    3.4387 C.ar      1 <0>        -0.2043
      8 C8          0.0184   -0.9757    2.3228 C.ar      1 <0>        -0.0623
      9 O1          2.7368   -1.8907    4.5610 O.3       1 <0>        -0.3057
     10 C9          1.9403   -2.3479    5.6557 C.3       1 <0>         0.1028
     11 C10         2.8398   -2.8056    6.7748 C.ar      1 <0>        -0.0613
     12 C11         3.2630   -4.1211    6.8269 C.ar      1 <0>        -0.1328
     13 C12         4.0882   -4.5441    7.8522 C.ar      1 <0>        -0.0811
     14 C13         4.4919   -3.6531    8.8280 C.ar      1 <0>        -0.1964
     15 C14         4.0688   -2.3330    8.7779 C.ar      1 <0>         0.1263
     16 C15         3.2455   -1.9095    7.7444 C.ar      1 <0>        -0.1274
     17 O2          4.4646   -1.4547    9.7365 O.3       1 <0>        -0.3163
     18 C16         5.3167   -1.9591   10.7667 C.3       1 <0>         0.0258
     19 N1          0.6840   -0.4886   -1.2000 N.am      1 <0>        -0.7155
     20 C17         0.0025   -0.6207   -2.3552 C.2       1 <0>         0.5112
     21 O3         -1.1805   -0.3563   -2.3951 O.2       1 <0>        -0.5346
     22 C18         0.7104   -1.0969   -3.5975 C.3       1 <0>         0.1154
     23 N2         -0.2413   -1.1555   -4.7097 N.am      1 <0>        -0.7196
     24 C19         0.1705   -1.5571   -5.9286 C.2       1 <0>         0.7101
     25 O4          1.3319   -1.8708   -6.1050 O.2       1 <0>        -0.5657
     26 N3         -0.7050   -1.6110   -6.9518 N.am      1 <0>        -0.6838
     27 C20        -0.2603   -1.9337   -8.2338 C.ar      1 <0>         0.2469
     28 C21         0.7671   -2.8567   -8.4004 C.ar      1 <0>        -0.1244
     29 C22         1.2086   -3.1770   -9.6647 C.ar      1 <0>        -0.0327
     30 C23         0.6233   -2.5744  -10.7807 C.ar      1 <0>        -0.1856
     31 C24        -0.4085   -1.6483  -10.6102 C.ar      1 <0>        -0.0306
     32 C25        -0.8490   -1.3361   -9.3436 C.ar      1 <0>        -0.1495
     33 C26         1.0950   -2.9154  -12.1386 C.cat     1 <0>         0.6032
     34 N4          0.5357   -2.3398  -13.2023 N.pl3     1 <0>        -0.7664
     35 N5          2.0796   -3.7987  -12.2996 N.pl3     1 <0>        -0.7653
     36 H1          0.9840    1.8885    0.0149 H         1 <0>         0.0612
     37 H2         -0.5663    1.8645   -0.8593 H         1 <0>         0.0639
     38 H3         -0.5479    1.8483    0.9204 H         1 <0>         0.0721
     39 H4         -1.0240   -0.4104    0.0147 H         1 <0>         0.0985
     40 H5          2.6646   -0.1674    0.3912 H         1 <0>         0.1268
     41 H6          3.8662   -0.9821    2.3790 H         1 <0>         0.1342
     42 H7          0.1327   -1.7952    4.2934 H         1 <0>         0.1323
     43 H8         -1.0614   -0.9701    2.3054 H         1 <0>         0.1286
     44 H9          1.3066   -1.5342    6.0086 H         1 <0>         0.0756
     45 H10         1.3157   -3.1791    5.3285 H         1 <0>         0.0762
     46 H11         2.9479   -4.8193    6.0656 H         1 <0>         0.1264
     47 H12         4.4173   -5.5720    7.8907 H         1 <0>         0.1301
     48 H13         5.1360   -3.9842    9.6291 H         1 <0>         0.1318
     49 H14         2.9187   -0.8811    7.7007 H         1 <0>         0.1331
     50 H15         4.8074   -2.7629   11.2983 H         1 <0>         0.0573
     51 H16         6.2357   -2.3421   10.3230 H         1 <0>         0.0571
     52 H17         5.5570   -1.1571   11.4646 H         1 <0>         0.1033
     53 H18         1.6302   -0.7001   -1.1682 H         1 <0>         0.4044
     54 H19         1.5157   -0.4051   -3.8445 H         1 <0>         0.1061
     55 H20         1.1251   -2.0894   -3.4215 H         1 <0>         0.1063
     56 H21        -1.1678   -0.9053   -4.5690 H         1 <0>         0.4146
     57 H22        -1.6443   -1.4255   -6.7967 H         1 <0>         0.4206
     58 H23         1.2192   -3.3222   -7.5371 H         1 <0>         0.1647
     59 H24         2.0067   -3.8931   -9.7933 H         1 <0>         0.1402
     60 H25        -0.8629   -1.1808  -11.4712 H         1 <0>         0.1412
     61 H26        -1.6495   -0.6233   -9.2113 H         1 <0>         0.1515
     62 H27        -0.1811   -1.6968  -13.0850 H         1 <0>         0.4431
     63 H28         2.4867   -4.2177  -11.5253 H         1 <0>         0.4438
     64 H29         2.3893   -4.0226  -13.1912 H         1 <0>         0.4323
     65 H30         0.8454   -2.5637  -14.0938 H         1 <0>         0.4323
@<TRIPOS>BOND
     1    1    2 1
     2    1   36 1
     3    1   37 1
     4    1   38 1
     5    2    3 1
     6    2   19 1
     7    2   39 1
     8    3    8 ar
     9    3    4 ar
    10    4    5 ar
    11    4   40 1
    12    5    6 ar
    13    5   41 1
    14    6    7 ar
    15    6    9 1
    16    7    8 ar
    17    7   42 1
    18    8   43 1
    19    9   10 1
    20   10   11 1
    21   10   44 1
    22   10   45 1
    23   11   16 ar
    24   11   12 ar
    25   12   13 ar
    26   12   46 1
    27   13   14 ar
    28   13   47 1
    29   14   15 ar
    30   14   48 1
    31   15   16 ar
    32   15   17 1
    33   16   49 1
    34   17   18 1
    35   18   50 1
    36   18   51 1
    37   18   52 1
    38   19   20 am
    39   19   53 1
    40   20   21 2
    41   20   22 1
    42   22   23 1
    43   22   54 1
    44   22   55 1
    45   23   24 am
    46   23   56 1
    47   24   25 2
    48   24   26 am
    49   26   27 1
    50   26   57 1
    51   27   32 ar
    52   27   28 ar
    53   28   29 ar
    54   28   58 1
    55   29   30 ar
    56   29   59 1
    57   30   31 ar
    58   30   33 1
    59   31   32 ar
    60   31   60 1
    61   32   61 1
    62   33   34 2
    63   33   35 1
    64   34   62 1
    65   34   65 1
    66   35   63 1
    67   35   64 1
@<TRIPOS>MOLECULE
CHEMBL435972__1
   65    67     0     0     0
SMALL
USER_CHARGES

@<TRIPOS>ATOM
      1 C1         -0.0033    1.5479    0.0220 C.3       1 <0>        -0.1598
      2 C2          0.0065    0.0180    0.0078 C.3       1 <0>         0.1910
      3 C3          0.7070   -0.4683   -1.2347 C.ar      1 <0>        -0.1390
      4 C4          2.0885   -0.4983   -1.2812 C.ar      1 <0>        -0.0741
      5 C5          2.7331   -0.9433   -2.4191 C.ar      1 <0>        -0.1461
      6 C6          1.9929   -1.3607   -3.5158 C.ar      1 <0>         0.1382
      7 C7          0.6068   -1.3301   -3.4665 C.ar      1 <0>        -0.2042
      8 C8         -0.0330   -0.8892   -2.3243 C.ar      1 <0>        -0.0624
      9 O1          2.6246   -1.7985   -4.6366 O.3       1 <0>        -0.3057
     10 C9          1.7989   -2.2128   -5.7268 C.3       1 <0>         0.1028
     11 C10         2.6682   -2.6622   -6.8728 C.ar      1 <0>        -0.0614
     12 C11         3.0803   -1.7495   -7.8266 C.ar      1 <0>        -0.1321
     13 C12         3.8778   -2.1586   -8.8791 C.ar      1 <0>        -0.0806
     14 C13         4.2647   -3.4811   -8.9808 C.ar      1 <0>        -0.1962
     15 C14         3.8527   -4.3985   -8.0254 C.ar      1 <0>         0.1256
     16 C15         3.0573   -3.9841   -6.9667 C.ar      1 <0>        -0.1278
     17 O2          4.2320   -5.6998   -8.1232 O.3       1 <0>        -0.3169
     18 C16         5.0557   -6.0536   -9.2361 C.3       1 <0>         0.0258
     19 N1          0.7128   -0.4768    1.1920 N.am      1 <0>        -0.7156
     20 C17         0.0537   -0.6206    2.3587 C.2       1 <0>         0.5112
     21 O3         -1.1243   -0.3403    2.4283 O.2       1 <0>        -0.5346
     22 C18         0.7803   -1.1296    3.5769 C.3       1 <0>         0.1153
     23 N2         -0.1488   -1.1954    4.7077 N.am      1 <0>        -0.7196
     24 C19         0.2825   -1.6252    5.9101 C.2       1 <0>         0.7101
     25 O4          1.4425   -1.9585    6.0563 O.2       1 <0>        -0.5656
     26 N3         -0.5722   -1.6857    6.9504 N.am      1 <0>        -0.6839
     27 C20        -0.1519   -2.2202    8.1682 C.ar      1 <0>         0.2469
     28 C21         1.1549   -2.0188    8.6005 C.ar      1 <0>        -0.1244
     29 C22         1.5730   -2.5456    9.8020 C.ar      1 <0>        -0.0327
     30 C23         0.6834   -3.2825   10.5873 C.ar      1 <0>        -0.1856
     31 C24        -0.6283   -3.4826   10.1506 C.ar      1 <0>        -0.0306
     32 C25        -1.0419   -2.9488    8.9506 C.ar      1 <0>        -0.1496
     33 C26         1.1289   -3.8495   11.8767 C.cat     1 <0>         0.6034
     34 N4          0.2790   -4.5522   12.6247 N.pl3     1 <0>        -0.7664
     35 N5          2.3806   -3.6581   12.2917 N.pl3     1 <0>        -0.7653
     36 H1          1.0220    1.9179    0.0145 H         1 <0>         0.0612
     37 H2         -0.5289    1.9161   -0.8591 H         1 <0>         0.0720
     38 H3         -0.5100    1.8997    0.9207 H         1 <0>         0.0640
     39 H4         -1.0188   -0.3520    0.0152 H         1 <0>         0.0985
     40 H5          2.6643   -0.1732   -0.4272 H         1 <0>         0.1268
     41 H6          3.8122   -0.9658   -2.4552 H         1 <0>         0.1343
     42 H7          0.0284   -1.6546   -4.3189 H         1 <0>         0.1323
     43 H8         -1.1120   -0.8693   -2.2838 H         1 <0>         0.1286
     44 H9          1.1630   -3.0385   -5.4076 H         1 <0>         0.0750
     45 H10         1.1763   -1.3780   -6.0486 H         1 <0>         0.0768
     46 H11         2.7783   -0.7155   -7.7492 H         1 <0>         0.1270
     47 H12         4.1983   -1.4440   -9.6227 H         1 <0>         0.1305
     48 H13         4.8872   -3.8003   -9.8036 H         1 <0>         0.1318
     49 H14         2.7392   -4.6956   -6.2190 H         1 <0>         0.1324
     50 H15         4.5280   -5.8319  -10.1637 H         1 <0>         0.0574
     51 H16         5.9821   -5.4805   -9.1992 H         1 <0>         0.0572
     52 H17         5.2852   -7.1184   -9.1943 H         1 <0>         0.1030
     53 H18         1.6549   -0.7010    1.1364 H         1 <0>         0.4044
     54 H19         1.1768   -2.1245    3.3742 H         1 <0>         0.1061
     55 H20         1.6006   -0.4541    3.8194 H         1 <0>         0.1064
     56 H21        -1.0743   -0.9295    4.5911 H         1 <0>         0.4146
     57 H22        -1.4797   -1.3575    6.8522 H         1 <0>         0.4206
     58 H23         1.8423   -1.4489    7.9930 H         1 <0>         0.1647
     59 H24         2.5879   -2.3894   10.1368 H         1 <0>         0.1402
     60 H25        -1.3185   -4.0519   10.7556 H         1 <0>         0.1412
     61 H26        -2.0571   -3.0998    8.6144 H         1 <0>         0.1515
     62 H27        -0.6321   -4.6915   12.3226 H         1 <0>         0.4431
     63 H28         2.9992   -3.1465   11.7472 H         1 <0>         0.4438
     64 H29         2.6731   -4.0304   13.1383 H         1 <0>         0.4323
     65 H30         0.5716   -4.9245   13.4713 H         1 <0>         0.4323
@<TRIPOS>BOND
     1    1    2 1
     2    1   36 1
     3    1   37 1
     4    1   38 1
     5    2    3 1
     6    2   19 1
     7    2   39 1
     8    3    8 ar
     9    3    4 ar
    10    4    5 ar
    11    4   40 1
    12    5    6 ar
    13    5   41 1
    14    6    7 ar
    15    6    9 1
    16    7    8 ar
    17    7   42 1
    18    8   43 1
    19    9   10 1
    20   10   11 1
    21   10   44 1
    22   10   45 1
    23   11   16 ar
    24   11   12 ar
    25   12   13 ar
    26   12   46 1
    27   13   14 ar
    28   13   47 1
    29   14   15 ar
    30   14   48 1
    31   15   16 ar
    32   15   17 1
    33   16   49 1
    34   17   18 1
    35   18   50 1
    36   18   51 1
    37   18   52 1
    38   19   20 am
    39   19   53 1
    40   20   21 2
    41   20   22 1
    42   22   23 1
    43   22   54 1
    44   22   55 1
    45   23   24 am
    46   23   56 1
    47   24   25 2
    48   24   26 am
    49   26   27 1
    50   26   57 1
    51   27   32 ar
    52   27   28 ar
    53   28   29 ar
    54   28   58 1
    55   29   30 ar
    56   29   59 1
    57   30   31 ar
    58   30   33 1
    59   31   32 ar
    60   31   60 1
    61   32   61 1
    62   33   34 2
    63   33   35 1
    64   34   62 1
    65   34   65 1
    66   35   63 1
    67   35   64 1
@<TRIPOS>MOLECULE
CHEMBL386638
   65    69     0     0     0
SMALL
USER_CHARGES

@<TRIPOS>ATOM
      1 C1         -0.0167    1.3781    0.0096 C.ar      1 <0>        -0.1216
      2 C2          1.1709    2.0855    0.0021 C.ar      1 <0>        -0.1191
      3 C3          2.3773    1.4107   -0.0130 C.ar      1 <0>        -0.1018
      4 C4          2.3960    0.0285   -0.0201 C.ar      1 <0>        -0.0791
      5 C5          1.2084   -0.6789   -0.0117 C.ar      1 <0>        -0.1160
      6 C6          0.0021   -0.0041    0.0020 C.ar      1 <0>        -0.1190
      7 C7          3.7112   -0.7071   -0.0376 C.3       1 <0>        -0.1101
      8 C8          4.1714   -0.9633    1.3989 C.3       1 <0>         0.1018
      9 H1          3.3868   -1.4885    1.9436 H         1 <0>         0.1249
     10 C9          5.4216   -1.8045    1.3834 C.2       1 <0>         0.4858
     11 O1          6.4670   -1.3447    1.7916 O.2       1 <0>        -0.5309
     12 N1          5.3780   -3.0679    0.9160 N.am      1 <0>        -0.7223
     13 C10         6.5934   -3.8857    0.9009 C.3       1 <0>         0.1607
     14 C11         6.2766   -5.2461    0.3352 C.ar      1 <0>        -0.1068
     15 C12         5.8712   -6.2665    1.1769 C.ar      1 <0>        -0.0999
     16 C13         5.5784   -7.5173    0.6645 C.ar      1 <0>        -0.1187
     17 C14         5.6892   -7.7539   -0.6909 C.ar      1 <0>        -0.0936
     18 C15         6.0970   -6.7299   -1.5432 C.ar      1 <0>        -0.0302
     19 C16         6.3857   -5.4700   -1.0220 C.ar      1 <0>        -0.0839
     20 C17         6.2179   -6.9783   -3.0009 C.ar      1 <0>        -0.0877
     21 C18         5.6261   -6.1061   -3.9054 C.ar      1 <0>        -0.0307
     22 C19         5.7395   -6.3384   -5.2788 C.ar      1 <0>        -0.1285
     23 C20         6.4482   -7.4489   -5.7447 C.ar      1 <0>        -0.0304
     24 C21         7.0417   -8.3238   -4.8416 C.ar      1 <0>        -0.1117
     25 C22         6.9328   -8.0875   -3.4643 C.ar      1 <0>         0.1265
     26 O2          7.5154   -8.9360   -2.5822 O.3       1 <0>        -0.4948
     27 C23         7.7914   -9.4994   -5.3337 C.2       1 <0>         0.1706
     28 C24         7.4244  -10.2801   -6.3812 C.2       1 <0>        -0.1450
     29 C25         8.4438  -11.3157   -6.5155 C.ar      1 <0>        -0.1910
     30 C26         8.6405  -12.4016   -7.3825 C.ar      1 <0>         0.5151
     31 N2          9.7015  -13.1777   -7.2350 N.ar      1 <0>        -0.5230
     32 H2          9.8248  -13.9246   -7.8414 H         1 <0>         0.4389
     33 C27        10.6010  -12.9672   -6.2861 C.ar      1 <0>         0.1044
     34 C28        10.4844  -11.9336   -5.4013 C.ar      1 <0>        -0.1365
     35 C29         9.3885  -11.0744   -5.4990 C.ar      1 <0>         0.1780
     36 N3          8.9734   -9.9678   -4.8033 N.pl3     1 <0>        -0.5303
     37 N4          7.7240  -12.6607   -8.3918 N.pl3     1 <0>        -0.8142
     38 C30         5.1110   -5.4120   -6.2361 C.2       1 <0>         0.5186
     39 O3          4.4901   -4.4398   -5.8288 O.co2     1 <0>        -0.6721
     40 O4          5.2099   -5.6148   -7.4384 O.co2     1 <0>        -0.6792
     41 O5          4.4442    0.2837    2.0412 O.3       1 <0>        -0.5307
     42 H3         -0.9591    1.9053    0.0259 H         1 <0>         0.1205
     43 H4          1.1563    3.1654    0.0076 H         1 <0>         0.1215
     44 H5          3.3051    1.9634   -0.0196 H         1 <0>         0.1204
     45 H6          1.2231   -1.7588   -0.0176 H         1 <0>         0.1216
     46 H7         -0.9258   -0.5567    0.0082 H         1 <0>         0.1218
     47 H8          3.5884   -1.6586   -0.5549 H         1 <0>         0.0899
     48 H9          4.4573   -0.1052   -0.5563 H         1 <0>         0.0849
     49 H10         4.5419   -3.4357    0.5896 H         1 <0>         0.4041
     50 H11         7.3492   -3.4019    0.2822 H         1 <0>         0.0783
     51 H12         6.9711   -3.9940    1.9177 H         1 <0>         0.0781
     52 H13         5.7835   -6.0858    2.2380 H         1 <0>         0.1244
     53 H14         5.2627   -8.3104    1.3261 H         1 <0>         0.1253
     54 H15         5.4606   -8.7311   -1.0900 H         1 <0>         0.1166
     55 H16         6.6980   -4.6715   -1.6787 H         1 <0>         0.1284
     56 H17         5.0774   -5.2476   -3.5470 H         1 <0>         0.1421
     57 H18         6.5346   -7.6279   -6.8063 H         1 <0>         0.1422
     58 H19         6.9462   -9.6669   -2.3049 H         1 <0>         0.3855
     59 H20         6.5457  -10.1585   -6.9974 H         1 <0>         0.1718
     60 H21        11.4494  -13.6311   -6.2098 H         1 <0>         0.2014
     61 H22        11.2309  -11.7825   -4.6356 H         1 <0>         0.1717
     62 H23         6.9463  -12.0911   -8.4986 H         1 <0>         0.4410
     63 H24         7.8612  -13.4116   -8.9903 H         1 <0>         0.4200
     64 H25         5.1342    0.8059    1.6094 H         1 <0>         0.3826
     65 H26         9.4408   -9.5752   -4.0495 H         1 <0>         0.4394
@<TRIPOS>BOND
     1    1    6 ar
     2    1    2 ar
     3    1   42 1
     4    2    3 ar
     5    2   43 1
     6    3    4 ar
     7    3   44 1
     8    4    5 ar
     9    4    7 1
    10    5    6 ar
    11    5   45 1
    12    6   46 1
    13    7    8 1
    14    7   47 1
    15    7   48 1
    16    8    9 1
    17    8   10 1
    18    8   41 1
    19   10   11 2
    20   10   12 am
    21   12   13 1
    22   12   49 1
    23   13   14 1
    24   13   50 1
    25   13   51 1
    26   14   19 ar
    27   14   15 ar
    28   15   16 ar
    29   15   52 1
    30   16   17 ar
    31   16   53 1
    32   17   18 ar
    33   17   54 1
    34   18   19 ar
    35   18   20 1
    36   19   55 1
    37   20   25 ar
    38   20   21 ar
    39   21   22 ar
    40   21   56 1
    41   22   23 ar
    42   22   38 1
    43   23   24 ar
    44   23   57 1
    45   24   25 ar
    46   24   27 1
    47   25   26 1
    48   26   58 1
    49   27   36 1
    50   27   28 2
    51   28   29 1
    52   28   59 1
    53   29   35 ar
    54   29   30 ar
    55   30   31 ar
    56   30   37 1
    57   31   32 1
    58   31   33 ar
    59   33   34 ar
    60   33   60 1
    61   34   35 ar
    62   34   61 1
    63   35   36 1
    64   36   65 1
    65   37   62 1
    66   37   63 1
    67   38   39 2
    68   38   40 1
    69   41   64 1
@<TRIPOS>MOLECULE
CHEMBL377368
   53    57     0     0     0
SMALL
USER_CHARGES

@<TRIPOS>ATOM
      1 C1         -0.0100    1.3488    0.0153 C.ar      1 <0>        -0.1158
      2 C2          1.1715    2.0685    0.0083 C.ar      1 <0>        -0.0887
      3 C3          2.3879    1.4107   -0.0144 C.ar      1 <0>        -0.1041
      4 C4          2.4291    0.0311   -0.0302 C.ar      1 <0>        -0.0810
      5 C5          1.2423   -0.6989   -0.0232 C.ar      1 <0>        -0.0521
      6 C6          0.0193   -0.0307   -0.0004 C.ar      1 <0>        -0.0891
      7 C7          1.2802   -2.1817   -0.0406 C.ar      1 <0>        -0.0612
      8 C8          2.0656   -2.8495   -0.9786 C.ar      1 <0>        -0.0659
      9 C9          2.1034   -4.2302   -0.9971 C.ar      1 <0>        -0.1167
     10 C10         1.3644   -4.9616   -0.0884 C.ar      1 <0>        -0.0827
     11 C11         0.5727   -4.3098    0.8576 C.ar      1 <0>        -0.0933
     12 C12         0.5338   -2.9117    0.8862 C.ar      1 <0>         0.1555
     13 O1         -0.2298   -2.2686    1.8063 O.3       1 <0>        -0.4825
     14 C13        -0.2184   -5.0938    1.8296 C.2       1 <0>         0.1601
     15 C14        -0.3861   -4.7772    3.1383 C.2       1 <0>        -0.1273
     16 C15        -1.2320   -5.8155    3.7213 C.ar      1 <0>        -0.1365
     17 C16        -1.7540   -6.0573    4.9918 C.ar      1 <0>         0.2053
     18 N1         -2.5076   -7.1157    5.2065 N.ar      1 <0>        -0.4600
     19 H1         -0.9385   -6.6806    0.6738 H         1 <0>         0.4368
     20 C17        -2.7990   -7.9805    4.2488 C.ar      1 <0>         0.0983
     21 C18        -2.3261   -7.8196    2.9647 C.ar      1 <0>        -0.1120
     22 C19        -1.5233   -6.7186    2.6759 C.ar      1 <0>         0.1765
     23 N2         -0.9028   -6.2540    1.5442 N.pl3     1 <0>        -0.5535
     24 C20         3.6706    2.2016   -0.0224 C.3       1 <0>         0.1786
     25 N3          4.1040    2.4431    1.3561 N.am      1 <0>        -0.7386
     26 C21         5.2350    3.1359    1.5953 C.2       1 <0>         0.7042
     27 O2          5.8958    3.5606    0.6670 O.2       1 <0>        -0.5686
     28 N4          5.6337    3.3581    2.8634 N.am      1 <0>        -0.6742
     29 C22         6.8716    3.9811    3.1134 C.2       1 <0>         0.1143
     30 C23         7.0869    4.6729    4.2947 C.2       1 <0>        -0.1769
     31 C24         8.2907    5.2603    4.5017 C.2       1 <0>        -0.1565
     32 S1          9.1701    4.8445    3.0050 S.3       1 <0>         0.0534
     33 C25         7.8781    3.9097    2.2027 C.2       1 <0>        -0.1768
     34 H2         -0.9570    1.8676    0.0375 H         1 <0>         0.1301
     35 H3          1.1439    3.1481    0.0202 H         1 <0>         0.1295
     36 H4          3.3795   -0.4816   -0.0482 H         1 <0>         0.1276
     37 H5         -0.9036   -0.5915    0.0050 H         1 <0>         0.1180
     38 H6          2.6462   -2.2856   -1.6935 H         1 <0>         0.1404
     39 H7          2.7143   -4.7407   -1.7269 H         1 <0>         0.1408
     40 H8          1.3991   -6.0408   -0.1102 H         1 <0>         0.1298
     41 H9         -1.1346   -2.0935    1.5135 H         1 <0>         0.3933
     42 H10         0.0273   -3.9213    3.6511 H         1 <0>         0.1825
     43 H11        -1.5393   -5.3753    5.8014 H         1 <0>         0.2112
     44 H12        -3.4216   -8.8324    4.4788 H         1 <0>         0.2078
     45 H13        -2.5735   -8.5356    2.1950 H         1 <0>         0.1788
     46 H14         4.4403    1.6404   -0.5522 H         1 <0>         0.0795
     47 H15         3.5063    3.1553   -0.5239 H         1 <0>         0.0811
     48 H16         3.5769    2.1044    2.0966 H         1 <0>         0.3984
     49 H17         5.0680    3.0888    3.6039 H         1 <0>         0.4048
     50 H18         6.3073    4.7432    5.0388 H         1 <0>         0.1370
     51 H19         8.6302    5.8323    5.3525 H         1 <0>         0.1912
     52 H20         7.8920    3.4167    1.2419 H         1 <0>         0.1974
     53 H21        -2.8609   -7.2664    6.0972 H         1 <0>         0.4521
@<TRIPOS>BOND
     1    1    6 ar
     2    1    2 ar
     3    1   34 1
     4    2    3 ar
     5    2   35 1
     6    3    4 ar
     7    3   24 1
     8    4    5 ar
     9    4   36 1
    10    5    6 ar
    11    5    7 1
    12    6   37 1
    13    7   12 ar
    14    7    8 ar
    15    8    9 ar
    16    8   38 1
    17    9   10 ar
    18    9   39 1
    19   10   11 ar
    20   10   40 1
    21   11   12 ar
    22   11   14 1
    23   12   13 1
    24   13   41 1
    25   14   23 1
    26   14   15 2
    27   15   16 1
    28   15   42 1
    29   16   17 ar
    30   16   22 ar
    31   17   18 ar
    32   17   43 1
    33   18   20 ar
    34   18   53 1
    35   19   23 1
    36   20   21 ar
    37   20   44 1
    38   21   22 ar
    39   21   45 1
    40   22   23 1
    41   24   25 1
    42   24   46 1
    43   24   47 1
    44   25   26 am
    45   25   48 1
    46   26   27 2
    47   26   28 am
    48   28   29 1
    49   28   49 1
    50   29   33 2
    51   29   30 1
    52   30   31 2
    53   30   50 1
    54   31   32 1
    55   31   51 1
    56   32   33 1
    57   33   52 1
@<TRIPOS>MOLECULE
CHEMBL210633
   55    59     0     0     0
SMALL
USER_CHARGES

@<TRIPOS>ATOM
      1 C1         -0.0253    1.4026    0.0083 C.ar      1 <0>        -0.1158
      2 C2          1.1653    2.1070    0.0008 C.ar      1 <0>        -0.0885
      3 C3          2.3732    1.4335   -0.0131 C.ar      1 <0>        -0.1049
      4 C4          2.3968    0.0534   -0.0197 C.ar      1 <0>        -0.0810
      5 C5          1.2006   -0.6613   -0.0123 C.ar      1 <0>        -0.0516
      6 C6         -0.0137    0.0227    0.0018 C.ar      1 <0>        -0.0887
      7 C7          1.2196   -2.1445   -0.0198 C.ar      1 <0>        -0.0616
      8 C8          1.9996   -2.8285   -0.9505 C.ar      1 <0>        -0.0659
      9 C9          2.0197   -4.2097   -0.9598 C.ar      1 <0>        -0.1167
     10 C10         1.2682   -4.9255   -0.0489 C.ar      1 <0>        -0.0826
     11 C11         0.4816   -4.2573    0.8899 C.ar      1 <0>        -0.0930
     12 C12         0.4606   -2.8587    0.9091 C.ar      1 <0>         0.1555
     13 O1         -0.2979   -2.1998    1.8223 O.3       1 <0>        -0.4825
     14 C13        -0.3229   -5.0247    1.8642 C.2       1 <0>         0.1598
     15 C14        -0.4911   -4.6974    3.1702 C.2       1 <0>        -0.1271
     16 C15        -1.3523   -5.7208    3.7569 C.ar      1 <0>        -0.1367
     17 C16        -1.8818   -5.9474    5.0271 C.ar      1 <0>         0.2055
     18 N1         -2.6497   -6.9946    5.2460 N.ar      1 <0>        -0.4600
     19 H1         -1.0592   -6.6097    0.7162 H         1 <0>         0.4368
     20 C17        -2.9488   -7.8620    4.2930 C.ar      1 <0>         0.0984
     21 C18        -2.4694   -7.7156    3.0096 C.ar      1 <0>        -0.1120
     22 C19        -1.6515   -6.6270    2.7164 C.ar      1 <0>         0.1765
     23 N2         -1.0211   -6.1779    1.5840 N.pl3     1 <0>        -0.5535
     24 C20         3.6660    2.2078   -0.0217 C.3       1 <0>         0.1781
     25 N3          4.0977    2.4528    1.3566 N.am      1 <0>        -0.7370
     26 C21         5.2367    3.1327    1.5954 C.2       1 <0>         0.7048
     27 O2          5.9060    3.5426    0.6668 O.2       1 <0>        -0.5691
     28 N4          5.6337    3.3581    2.8634 N.am      1 <0>        -0.6807
     29 C22         6.8642    3.9774    3.1119 C.ar      1 <0>         0.1087
     30 C23         7.3404    4.9703    2.2593 C.ar      1 <0>        -0.0766
     31 C24         8.5631    5.5539    2.5471 C.ar      1 <0>        -0.1510
     32 C25         9.2654    5.1353    3.6622 C.ar      1 <0>         0.0823
     33 N5          8.7869    4.1920    4.4495 N.ar      1 <0>        -0.4655
     34 C26         7.6252    3.6148    4.2152 C.ar      1 <0>         0.0761
     35 H2         -0.9657    1.9336    0.0238 H         1 <0>         0.1303
     36 H3          1.1516    3.1869    0.0056 H         1 <0>         0.1295
     37 H4          3.3406   -0.4716   -0.0310 H         1 <0>         0.1276
     38 H5         -0.9438   -0.5262    0.0076 H         1 <0>         0.1182
     39 H6          2.5899   -2.2768   -1.6671 H         1 <0>         0.1403
     40 H7          2.6266   -4.7328   -1.6840 H         1 <0>         0.1408
     41 H8          1.2891   -6.0052   -0.0635 H         1 <0>         0.1299
     42 H9         -1.1993   -2.0150    1.5250 H         1 <0>         0.3933
     43 H10        -0.0686   -3.8434    3.6788 H         1 <0>         0.1825
     44 H11        -1.6612   -5.2630    5.8329 H         1 <0>         0.2112
     45 H12        -3.5831   -8.7043    4.5263 H         1 <0>         0.2079
     46 H13        -2.7232   -8.4335    2.2437 H         1 <0>         0.1788
     47 H14         4.4303    1.6332   -0.5451 H         1 <0>         0.0798
     48 H15         3.5158    3.1602   -0.5301 H         1 <0>         0.0817
     49 H16         3.5637    2.1258    2.0975 H         1 <0>         0.3994
     50 H17         5.0668    3.0911    3.6039 H         1 <0>         0.4094
     51 H18         6.7705    5.2775    1.3948 H         1 <0>         0.1508
     52 H19         8.9635    6.3268    1.9078 H         1 <0>         0.1405
     53 H20        10.2193    5.5870    3.8913 H         1 <0>         0.1598
     54 H21         7.2639    2.8489    4.8854 H         1 <0>         0.1554
     55 H22        -3.0080   -7.1350    6.1365 H         1 <0>         0.4522
@<TRIPOS>BOND
     1    1    6 ar
     2    1    2 ar
     3    1   35 1
     4    2    3 ar
     5    2   36 1
     6    3    4 ar
     7    3   24 1
     8    4    5 ar
     9    4   37 1
    10    5    6 ar
    11    5    7 1
    12    6   38 1
    13    7   12 ar
    14    7    8 ar
    15    8    9 ar
    16    8   39 1
    17    9   10 ar
    18    9   40 1
    19   10   11 ar
    20   10   41 1
    21   11   12 ar
    22   11   14 1
    23   12   13 1
    24   13   42 1
    25   14   23 1
    26   14   15 2
    27   15   16 1
    28   15   43 1
    29   16   17 ar
    30   16   22 ar
    31   17   18 ar
    32   17   44 1
    33   18   20 ar
    34   18   55 1
    35   19   23 1
    36   20   21 ar
    37   20   45 1
    38   21   22 ar
    39   21   46 1
    40   22   23 1
    41   24   25 1
    42   24   47 1
    43   24   48 1
    44   25   26 am
    45   25   49 1
    46   26   27 2
    47   26   28 am
    48   28   29 1
    49   28   50 1
    50   29   34 ar
    51   29   30 ar
    52   30   31 ar
    53   30   51 1
    54   31   32 ar
    55   31   52 1
    56   32   33 ar
    57   32   53 1
    58   33   34 ar
    59   34   54 1
@<TRIPOS>MOLECULE
CHEMBL382572
   74    77     0     0     0
SMALL
USER_CHARGES

@<TRIPOS>ATOM
      1 C1          2.3196    1.8904    0.5799 C.3       1 <0>        -0.1109
      2 C2          1.8250    0.4670    0.5938 C.ar      1 <0>        -0.0923
      3 C3          1.2205   -0.0650   -0.5312 C.ar      1 <0>        -0.1256
      4 C4          0.7639   -1.3704   -0.5252 C.ar      1 <0>        -0.1075
      5 C5          0.9093   -2.1500    0.6046 C.ar      1 <0>        -0.1142
      6 C6          1.5177   -1.6196    1.7402 C.ar      1 <0>        -0.0249
      7 C7          1.9810   -0.3053    1.7267 C.ar      1 <0>        -0.1220
      8 C8          1.6768   -2.4528    2.9577 C.ar      1 <0>        -0.0759
      9 C9          2.2822   -1.9158    4.0962 C.ar      1 <0>        -0.1014
     10 C10         2.4340   -2.6832    5.2305 C.ar      1 <0>        -0.1427
     11 C11         1.9856   -3.9970    5.2508 C.ar      1 <0>         0.1121
     12 C12         1.3754   -4.5461    4.1120 C.ar      1 <0>        -0.1198
     13 C13         1.2185   -3.7636    2.9657 C.ar      1 <0>        -0.0541
     14 C14         0.8985   -5.9385    4.1276 C.2       1 <0>         0.5148
     15 O1          0.3671   -6.4143    3.1336 O.co2     1 <0>        -0.6793
     16 O2          1.0335   -6.6201    5.1345 O.co2     1 <0>        -0.6603
     17 O3          2.1373   -4.7487    6.3688 O.3       1 <0>        -0.1703
     18 C15         1.8615   -4.1723    7.5667 C.ar      1 <0>         0.3348
     19 C16         2.1435   -4.8584    8.7380 C.ar      1 <0>         0.0495
     20 C17         1.8567   -4.2571    9.9628 C.ar      1 <0>         0.2208
     21 C18         1.2940   -2.9812    9.9591 C.ar      1 <0>         0.0296
     22 C19         1.0407   -2.3587    8.7468 C.ar      1 <0>         0.3009
     23 N1          1.3313   -2.9593    7.6026 N.ar      1 <0>        -0.5390
     24 O4          0.4926   -1.1166    8.7322 O.3       1 <0>        -0.2173
     25 C20         0.1951   -0.5647    7.5264 C.ar      1 <0>         0.1065
     26 C21        -0.0020   -1.3799    6.4196 C.ar      1 <0>        -0.0794
     27 C22        -0.3044   -0.8238    5.1908 C.ar      1 <0>        -0.0810
     28 C23        -0.4129    0.5457    5.0562 C.ar      1 <0>        -0.0732
     29 C24        -0.2170    1.3725    6.1627 C.ar      1 <0>        -0.1481
     30 C25         0.0829    0.8101    7.4032 C.ar      1 <0>        -0.0824
     31 C26        -0.3326    2.8411    6.0218 C.cat     1 <0>         0.6098
     32 N2         -0.0297    3.4246    4.8640 N.pl3     1 <0>        -0.7601
     33 N3         -0.7394    3.5788    7.0528 N.pl3     1 <0>        -0.7618
     34 F1          0.9990   -2.3600   11.1221 F         1 <0>        -0.1077
     35 N4          2.1258   -4.9161   11.1630 N.pl3     1 <0>        -0.6533
     36 C27         3.4279   -4.7505   11.8137 C.3       1 <0>         0.1634
     37 C28         4.5388   -5.1498   10.8404 C.3       1 <0>        -0.1710
     38 C29         3.6106   -3.2879   12.2240 C.3       1 <0>        -0.1649
     39 C30         1.1062   -5.7737   11.7724 C.3       1 <0>         0.1632
     40 C31         1.6722   -7.1822   11.9634 C.3       1 <0>        -0.1656
     41 C32         0.7013   -5.1981   13.1309 C.3       1 <0>        -0.1621
     42 F2          2.6887   -6.0937    8.6932 F         1 <0>        -0.0924
     43 H1          3.3523    1.9129    0.2320 H         1 <0>         0.0705
     44 H2          1.6977    2.4846   -0.0897 H         1 <0>         0.0651
     45 H3          2.2664    2.3034    1.5872 H         1 <0>         0.0572
     46 H4          1.1043    0.5416   -1.4172 H         1 <0>         0.1193
     47 H5          0.2923   -1.7805   -1.4061 H         1 <0>         0.1250
     48 H6          0.5517   -3.1691    0.6084 H         1 <0>         0.1322
     49 H7          2.4571    0.1095    2.6029 H         1 <0>         0.1192
     50 H8          2.6333   -0.8945    4.0873 H         1 <0>         0.1197
     51 H9          2.9037   -2.2613    6.1068 H         1 <0>         0.1226
     52 H10         0.7464   -4.1779    2.0872 H         1 <0>         0.1425
     53 H11         0.0816   -2.4520    6.5192 H         1 <0>         0.1886
     54 H12        -0.4560   -1.4627    4.3334 H         1 <0>         0.1516
     55 H13        -0.6489    0.9769    4.0946 H         1 <0>         0.1396
     56 H14         0.2316    1.4450    8.2640 H         1 <0>         0.1447
     57 H15        -0.1054    4.3872    4.7717 H         1 <0>         0.4310
     58 H16        -0.9601    3.1536    7.8963 H         1 <0>         0.4465
     59 H17        -0.8152    4.5414    6.9604 H         1 <0>         0.4306
     60 H18         3.4750   -5.3848   12.6989 H         1 <0>         0.0932
     61 H19         5.5006   -5.1126   11.3519 H         1 <0>         0.0657
     62 H20         4.3585   -6.1621   10.4787 H         1 <0>         0.0688
     63 H21         4.5488   -4.4591    9.9973 H         1 <0>         0.0498
     64 H22         2.8593   -3.0227   12.9678 H         1 <0>         0.0614
     65 H23         4.6055   -3.1510   12.6477 H         1 <0>         0.0634
     66 H24         3.4972   -2.6482   11.3489 H         1 <0>         0.0500
     67 H25         0.2328   -5.8182   11.1218 H         1 <0>         0.0791
     68 H26         2.4833   -7.1523   12.6910 H         1 <0>         0.0579
     69 H27         0.8850   -7.8443   12.3239 H         1 <0>         0.0660
     70 H28         2.0517   -7.5535   11.0114 H         1 <0>         0.0657
     71 H29         0.2235   -4.2290   12.9872 H         1 <0>         0.0577
     72 H30         0.0039   -5.8780   13.6203 H         1 <0>         0.0646
     73 H31         1.5880   -5.0773   13.7532 H         1 <0>         0.0586
     74 H32         0.2667    2.8872    4.1129 H         1 <0>         0.4470
@<TRIPOS>BOND
     1    1    2 1
     2    1   43 1
     3    1   44 1
     4    1   45 1
     5    2    7 ar
     6    2    3 ar
     7    3    4 ar
     8    3   46 1
     9    4    5 ar
    10    4   47 1
    11    5    6 ar
    12    5   48 1
    13    6    7 ar
    14    6    8 1
    15    7   49 1
    16    8   13 ar
    17    8    9 ar
    18    9   10 ar
    19    9   50 1
    20   10   11 ar
    21   10   51 1
    22   11   12 ar
    23   11   17 1
    24   12   13 ar
    25   12   14 1
    26   13   52 1
    27   14   15 2
    28   14   16 1
    29   17   18 1
    30   18   23 ar
    31   18   19 ar
    32   19   20 ar
    33   19   42 1
    34   20   21 ar
    35   20   35 1
    36   21   22 ar
    37   21   34 1
    38   22   23 ar
    39   22   24 1
    40   24   25 1
    41   25   30 ar
    42   25   26 ar
    43   26   27 ar
    44   26   53 1
    45   27   28 ar
    46   27   54 1
    47   28   29 ar
    48   28   55 1
    49   29   30 ar
    50   29   31 1
    51   30   56 1
    52   31   32 2
    53   31   33 1
    54   32   57 1
    55   32   74 1
    56   33   58 1
    57   33   59 1
    58   35   36 1
    59   35   39 1
    60   36   37 1
    61   36   38 1
    62   36   60 1
    63   37   61 1
    64   37   62 1
    65   37   63 1
    66   38   64 1
    67   38   65 1
    68   38   66 1
    69   39   40 1
    70   39   41 1
    71   39   67 1
    72   40   68 1
    73   40   69 1
    74   40   70 1
    75   41   71 1
    76   41   72 1
    77   41   73 1
@<TRIPOS>MOLECULE
CHEMBL380813
   71    75     0     0     0
SMALL
USER_CHARGES

@<TRIPOS>ATOM
      1 C1         -0.0885    1.2793    0.7389 C.3       1 <0>         0.0255
      2 O1         -0.0679   -0.1449    0.6242 O.3       1 <0>        -0.3056
      3 C2         -1.2700   -0.7747    0.5356 C.ar      1 <0>         0.1014
      4 C3         -2.4431   -0.0373    0.5527 C.ar      1 <0>        -0.1707
      5 C4         -3.6642   -0.6790    0.4621 C.ar      1 <0>        -0.1112
      6 C5         -3.7186   -2.0562    0.3546 C.ar      1 <0>        -0.0844
      7 C6         -2.5520   -2.7978    0.3374 C.ar      1 <0>        -0.1648
      8 C7         -1.3246   -2.1605    0.4217 C.ar      1 <0>         0.1040
      9 O2         -0.1759   -2.8881    0.3988 O.3       1 <0>        -0.3042
     10 C8         -0.3083   -4.3059    0.2798 C.3       1 <0>         0.0264
     11 C9         -5.0525   -2.7506    0.2566 C.3       1 <0>        -0.0914
     12 C10        -5.4556   -2.8754   -1.2141 C.3       1 <0>         0.1004
     13 N1         -6.7523   -3.5504   -1.3094 N.am      1 <0>        -0.6019
     14 C11        -7.9911   -2.7761   -1.1992 C.3       1 <0>         0.1476
     15 C12        -8.4163   -2.3111   -2.5681 C.ar      1 <0>        -0.0931
     16 C13        -7.9580   -1.0865   -3.0505 C.ar      1 <0>        -0.0667
     17 C14        -8.3230   -0.6371   -4.2826 C.ar      1 <0>        -0.1163
     18 C15        -9.1740   -1.4162   -5.0842 C.ar      1 <0>        -0.0115
     19 C16        -9.5685   -0.9792   -6.3620 C.ar      1 <0>        -0.0809
     20 C17       -10.3916   -1.7489   -7.1186 C.ar      1 <0>        -0.0952
     21 C18       -10.8604   -2.9864   -6.6434 C.ar      1 <0>        -0.1603
     22 C19       -10.4900   -3.4443   -5.3907 C.ar      1 <0>        -0.0112
     23 C20        -9.6401   -2.6624   -4.5938 C.ar      1 <0>        -0.0676
     24 C21        -9.2377   -3.0956   -3.3177 C.ar      1 <0>        -0.0675
     25 C22       -11.7568   -3.8050   -7.4883 C.cat     1 <0>         0.6023
     26 N2        -12.5809   -3.2144   -8.3519 N.pl3     1 <0>        -0.7590
     27 N3        -11.7399   -5.1327   -7.3856 N.pl3     1 <0>        -0.7611
     28 C23        -6.8056   -4.8838   -1.4985 C.2       1 <0>         0.5728
     29 O3         -7.8786   -5.4325   -1.6607 O.2       1 <0>        -0.5271
     30 C24        -5.5628   -5.6773   -1.5087 C.ar      1 <0>        -0.1185
     31 C25        -4.5644   -5.4054   -2.4326 C.ar      1 <0>        -0.0805
     32 C26        -3.3914   -6.1493   -2.4471 C.ar      1 <0>        -0.1264
     33 C27        -3.1876   -7.1628   -1.5591 C.ar      1 <0>        -0.0780
     34 C28        -4.1720   -7.4736   -0.6052 C.ar      1 <0>        -0.0544
     35 C29        -5.3721   -6.7227   -0.5707 C.ar      1 <0>        -0.0148
     36 C30        -6.3508   -7.0302    0.3841 C.ar      1 <0>        -0.1099
     37 C31        -6.1343   -8.0422    1.2705 C.ar      1 <0>        -0.1027
     38 C32        -4.9519   -8.7781    1.2423 C.ar      1 <0>        -0.1114
     39 C33        -3.9852   -8.5149    0.3205 C.ar      1 <0>        -0.1027
     40 H1          0.9333    1.6536    0.8012 H         1 <0>         0.1030
     41 H2         -0.5795    1.7071   -0.1351 H         1 <0>         0.0551
     42 H3         -0.6351    1.5635    1.6382 H         1 <0>         0.0560
     43 H4         -2.4034    1.0386    0.6373 H         1 <0>         0.1365
     44 H5         -4.5778   -0.1031    0.4755 H         1 <0>         0.1257
     45 H6         -2.5973   -3.8737    0.2538 H         1 <0>         0.1339
     46 H7          0.6808   -4.7640    0.2738 H         1 <0>         0.1023
     47 H8         -0.8811   -4.6895    1.1241 H         1 <0>         0.0546
     48 H9         -0.8255   -4.5459   -0.6491 H         1 <0>         0.0543
     49 H10        -4.9782   -3.7443    0.6985 H         1 <0>         0.0766
     50 H11        -5.8043   -2.1704    0.7914 H         1 <0>         0.0785
     51 H12        -5.5299   -1.8818   -1.6560 H         1 <0>         0.0837
     52 H13        -4.7037   -3.4556   -1.7490 H         1 <0>         0.0954
     53 H14        -8.7732   -3.4014   -0.7686 H         1 <0>         0.1000
     54 H15        -7.8230   -1.9112   -0.5576 H         1 <0>         0.0973
     55 H16        -7.3036   -0.4847   -2.4373 H         1 <0>         0.1360
     56 H17        -7.9601    0.3144   -4.6422 H         1 <0>         0.1417
     57 H18        -9.2167   -0.0310   -6.7408 H         1 <0>         0.1481
     58 H19       -10.6906   -1.4063   -8.0982 H         1 <0>         0.1366
     59 H20       -10.8527   -4.3952   -5.0295 H         1 <0>         0.1435
     60 H21        -9.5817   -4.0444   -2.9331 H         1 <0>         0.1455
     61 H22       -12.5932   -2.2474   -8.4268 H         1 <0>         0.4465
     62 H23       -11.1397   -5.5629   -6.7566 H         1 <0>         0.4459
     63 H24       -12.3278   -5.6696   -7.9397 H         1 <0>         0.4329
     64 H25        -4.7006   -4.6077   -3.1478 H         1 <0>         0.1273
     65 H26        -2.6274   -5.9206   -3.1755 H         1 <0>         0.1315
     66 H27        -2.2680   -7.7285   -1.5886 H         1 <0>         0.1339
     67 H28        -7.2720   -6.4675    0.4175 H         1 <0>         0.1278
     68 H29        -6.8901   -8.2769    2.0055 H         1 <0>         0.1270
     69 H30        -4.8040   -9.5752    1.9559 H         1 <0>         0.1284
     70 H31        -3.0736   -9.0939    0.3096 H         1 <0>         0.1324
     71 H32       -13.1687   -3.7513   -8.9061 H         1 <0>         0.4325
@<TRIPOS>BOND
     1    1    2 1
     2    1   40 1
     3    1   41 1
     4    1   42 1
     5    2    3 1
     6    3    8 ar
     7    3    4 ar
     8    4    5 ar
     9    4   43 1
    10    5    6 ar
    11    5   44 1
    12    6    7 ar
    13    6   11 1
    14    7    8 ar
    15    7   45 1
    16    8    9 1
    17    9   10 1
    18   10   46 1
    19   10   47 1
    20   10   48 1
    21   11   12 1
    22   11   49 1
    23   11   50 1
    24   12   13 1
    25   12   51 1
    26   12   52 1
    27   13   14 1
    28   13   28 am
    29   14   15 1
    30   14   53 1
    31   14   54 1
    32   15   24 ar
    33   15   16 ar
    34   16   17 ar
    35   16   55 1
    36   17   18 ar
    37   17   56 1
    38   18   23 ar
    39   18   19 ar
    40   19   20 ar
    41   19   57 1
    42   20   21 ar
    43   20   58 1
    44   21   22 ar
    45   21   25 1
    46   22   23 ar
    47   22   59 1
    48   23   24 ar
    49   24   60 1
    50   25   26 2
    51   25   27 1
    52   26   61 1
    53   26   71 1
    54   27   62 1
    55   27   63 1
    56   28   29 2
    57   28   30 1
    58   30   35 ar
    59   30   31 ar
    60   31   32 ar
    61   31   64 1
    62   32   33 ar
    63   32   65 1
    64   33   34 ar
    65   33   66 1
    66   34   39 ar
    67   34   35 ar
    68   35   36 ar
    69   36   37 ar
    70   36   67 1
    71   37   38 ar
    72   37   68 1
    73   38   39 ar
    74   38   69 1
    75   39   70 1
@<TRIPOS>MOLECULE
CHEMBL341487
   63    66     0     0     0
SMALL
USER_CHARGES

@<TRIPOS>ATOM
      1 C1          0.0959    1.9250   -1.4902 C.ar      1 <0>        -0.0959
      2 C2          1.2545    2.6310   -1.7409 C.ar      1 <0>        -0.0583
      3 C3          2.4840    1.9715   -1.7384 C.ar      1 <0>        -0.1536
      4 C4          2.5333    0.6010   -1.4820 C.ar      1 <0>        -0.0565
      5 C5          1.3675   -0.0936   -1.2327 C.ar      1 <0>        -0.0934
      6 C6          0.1515    0.5661   -1.2366 C.ar      1 <0>        -0.0333
      7 C7         -1.1179   -0.1987   -0.9631 C.3       1 <0>         0.1479
      8 N1         -1.6651   -0.7039   -2.2247 N.am      1 <0>        -0.7282
      9 C8         -2.8054   -1.4223   -2.2249 C.2       1 <0>         0.5142
     10 O1         -3.3786   -1.6504   -1.1807 O.2       1 <0>        -0.5101
     11 C9         -3.3683   -1.9421   -3.5226 C.3       1 <0>         0.0789
     12 N2         -4.6023   -2.6855   -3.2567 N.am      1 <0>        -0.4526
     13 C10        -4.5767   -4.0514   -3.1204 C.2       1 <0>         0.1183
     14 C11        -5.7358   -4.7485   -2.8708 C.2       1 <0>         0.1087
     15 N3         -6.9059   -4.1279   -2.7552 N.2       1 <0>        -0.4865
     16 C12        -6.9928   -2.8192   -2.8763 C.2       1 <0>         0.3587
     17 C13        -5.7814   -2.0362   -3.1366 C.2       1 <0>         0.4976
     18 O2         -5.8371   -0.8230   -3.2470 O.2       1 <0>        -0.5328
     19 N4         -8.2219   -2.1857   -2.7531 N.pl3     1 <0>        -0.6778
     20 C14        -9.4284   -2.9731   -2.4875 C.3       1 <0>         0.1344
     21 C15       -10.3699   -3.0851   -3.6983 C.3       1 <0>        -0.1546
     22 C16       -11.5347   -2.9132   -2.7090 C.3       1 <0>        -0.1389
     23 C17       -10.5444   -2.1748   -1.7931 C.3       1 <0>        -0.1488
     24 Cl1        -5.6695   -6.4752   -2.7036 Cl        1 <0>         0.0059
     25 C18        -3.2961   -4.7771   -3.2430 C.ar      1 <0>        -0.0516
     26 C19        -3.1565   -5.7912   -4.1896 C.ar      1 <0>        -0.0836
     27 C20        -1.9455   -6.4732   -4.3020 C.ar      1 <0>        -0.0862
     28 C21        -0.8769   -6.1381   -3.4663 C.ar      1 <0>        -0.1338
     29 C22        -1.0202   -5.1287   -2.5256 C.ar      1 <0>         0.1894
     30 C23        -2.2220   -4.4442   -2.4150 C.ar      1 <0>        -0.1871
     31 N5          0.0503   -4.7968   -1.6909 N.pl3     1 <0>        -0.8856
     32 C24        -1.7927   -7.5479   -5.3020 C.2       1 <0>         0.5183
     33 O3         -2.7285   -7.8407   -6.0327 O.co2     1 <0>        -0.6762
     34 O4         -0.7303   -8.1454   -5.3999 O.co2     1 <0>        -0.6846
     35 C25         3.7304    2.7224   -2.0070 C.cat     1 <0>         0.6014
     36 N6          4.9022    2.0903   -2.0039 N.pl3     1 <0>        -0.7610
     37 N7          3.6801    4.0302   -2.2518 N.pl3     1 <0>        -0.7624
     38 H1         -0.8560    2.4352   -1.4874 H         1 <0>         0.1513
     39 H2          1.2098    3.6917   -1.9391 H         1 <0>         0.1394
     40 H3          3.4820    0.0848   -1.4790 H         1 <0>         0.1405
     41 H4          1.4044   -1.1546   -1.0344 H         1 <0>         0.1528
     42 H5         -0.9018   -1.0360   -0.2995 H         1 <0>         0.0901
     43 H6         -1.8450    0.4614   -0.4902 H         1 <0>         0.0895
     44 H7         -1.2066   -0.5215   -3.0598 H         1 <0>         0.4046
     45 H8         -3.5844   -1.1048   -4.1862 H         1 <0>         0.1279
     46 H9         -2.6412   -2.6022   -3.9955 H         1 <0>         0.1374
     47 H10        -8.2818   -1.2218   -2.8430 H         1 <0>         0.4157
     48 H11        -9.2134   -3.9290   -2.0100 H         1 <0>         0.1219
     49 H12       -10.2722   -2.2610   -4.4051 H         1 <0>         0.0825
     50 H13       -10.3470   -4.0624   -4.1803 H         1 <0>         0.0752
     51 H14       -12.3373   -2.2791   -3.0855 H         1 <0>         0.0728
     52 H15       -11.8965   -3.8535   -2.2930 H         1 <0>         0.0854
     53 H16       -10.6624   -2.4174   -0.7370 H         1 <0>         0.0748
     54 H17       -10.4944   -1.1020   -1.9790 H         1 <0>         0.0840
     55 H18        -3.9844   -6.0482   -4.8338 H         1 <0>         0.1325
     56 H19         0.0615   -6.6657   -3.5526 H         1 <0>         0.1285
     57 H20        -2.3283   -3.6557   -1.6847 H         1 <0>         0.1141
     58 H21         0.8922   -5.2721   -1.7697 H         1 <0>         0.3961
     59 H22        -0.0486   -4.0912   -1.0326 H         1 <0>         0.3865
     60 H23         4.9389    1.1376   -1.8256 H         1 <0>         0.4451
     61 H24         2.8264    4.4907   -2.2541 H         1 <0>         0.4443
     62 H25         4.4971    4.5225   -2.4279 H         1 <0>         0.4331
     63 H26         5.7193    2.5826   -2.1800 H         1 <0>         0.4333
@<TRIPOS>BOND
     1    1    6 ar
     2    1    2 ar
     3    1   38 1
     4    2    3 ar
     5    2   39 1
     6    3    4 ar
     7    3   35 1
     8    4    5 ar
     9    4   40 1
    10    5    6 ar
    11    5   41 1
    12    6    7 1
    13    7    8 1
    14    7   42 1
    15    7   43 1
    16    8    9 am
    17    8   44 1
    18    9   10 2
    19    9   11 1
    20   11   12 1
    21   11   45 1
    22   11   46 1
    23   12   17 am
    24   12   13 1
    25   13   14 2
    26   13   25 1
    27   14   15 1
    28   14   24 1
    29   15   16 2
    30   16   17 1
    31   16   19 1
    32   17   18 2
    33   19   20 1
    34   19   47 1
    35   20   23 1
    36   20   21 1
    37   20   48 1
    38   21   22 1
    39   21   49 1
    40   21   50 1
    41   22   23 1
    42   22   51 1
    43   22   52 1
    44   23   53 1
    45   23   54 1
    46   25   30 ar
    47   25   26 ar
    48   26   27 ar
    49   26   55 1
    50   27   28 ar
    51   27   32 1
    52   28   29 ar
    53   28   56 1
    54   29   30 ar
    55   29   31 1
    56   30   57 1
    57   31   58 1
    58   31   59 1
    59   32   33 2
    60   32   34 1
    61   35   36 2
    62   35   37 1
    63   36   60 1
    64   36   63 1
    65   37   61 1
    66   37   62 1
@<TRIPOS>MOLECULE
CHEMBL371815
   80    82     0     0     0
SMALL
USER_CHARGES

@<TRIPOS>ATOM
      1 C1         -0.2727    5.4813    3.1746 C.3       1 <0>        -0.1512
      2 C2         -0.1835    4.9135    1.7566 C.3       1 <0>        -0.1326
      3 C3         -1.5911    4.6099    1.2394 C.3       1 <0>         0.1403
      4 H1         -2.2057    5.5073    1.3104 H         1 <0>         0.0903
      5 C4         -1.5118    4.1603   -0.2209 C.3       1 <0>        -0.1665
      6 N1         -2.1886    3.5436    2.0470 N.am      1 <0>        -0.7198
      7 C5         -3.5291    3.4401    2.1410 C.2       1 <0>         0.5587
      8 O1         -4.2423    4.2315    1.5557 O.2       1 <0>        -0.5247
      9 C6         -4.1323    2.3638    2.9562 C.ar      1 <0>        -0.0757
     10 C7         -5.5181    2.2527    3.0492 C.ar      1 <0>        -0.0764
     11 C8         -6.0827    1.2366    3.8188 C.ar      1 <0>        -0.0034
     12 C9         -5.2581    0.3339    4.4936 C.ar      1 <0>        -0.1685
     13 C10        -3.8791    0.4479    4.3989 C.ar      1 <0>         0.2157
     14 C11        -3.3141    1.4547    3.6284 C.ar      1 <0>        -0.1529
     15 N2         -3.0567   -0.4567    5.0756 N.pl3     1 <0>        -0.8775
     16 C12        -7.5515    1.1152    3.9208 C.2       1 <0>         0.0653
     17 C13        -8.3045    0.9674    2.7813 C.2       1 <0>         0.0606
     18 N3         -9.6278    0.8553    2.8349 N.2       1 <0>        -0.4975
     19 C14       -10.2631    0.8820    3.9881 C.2       1 <0>         0.3577
     20 C15        -9.4989    1.0376    5.2295 C.2       1 <0>         0.4945
     21 O2        -10.0651    1.0646    6.3091 O.2       1 <0>        -0.5344
     22 N4         -8.1538    1.1452    5.1538 N.am      1 <0>        -0.4557
     23 C16        -7.3507    1.2967    6.3696 C.3       1 <0>         0.0703
     24 C17        -7.0820    2.7590    6.6152 C.2       1 <0>         0.5113
     25 O3         -7.5183    3.5926    5.8499 O.2       1 <0>        -0.5049
     26 N5         -6.3568    3.1405    7.6852 N.am      1 <0>        -0.7141
     27 C18        -6.0955    4.5621    7.9239 C.3       1 <0>         0.1421
     28 C19        -5.2694    4.7180    9.1747 C.ar      1 <0>         0.0146
     29 C20        -5.8791    5.0634   10.3645 C.ar      1 <0>        -0.0982
     30 C21        -5.1293    5.2086   11.5148 C.ar      1 <0>        -0.0371
     31 C22        -3.7479    5.0067   11.4818 C.ar      1 <0>        -0.1578
     32 C23        -3.1266    4.6578   10.2855 C.ar      1 <0>        -0.0341
     33 C24        -3.8896    4.5072    9.1292 C.ar      1 <0>        -0.1138
     34 C25        -3.2390    4.1311    7.8559 C.2       1 <0>         0.5490
     35 O4         -3.9051    4.0050    6.8470 O.2       1 <0>        -0.4861
     36 N6         -1.9072    3.9281    7.8138 N.am      1 <0>        -0.8463
     37 C26        -2.9459    5.1638   12.7155 C.cat     1 <0>         0.6031
     38 N7         -3.3346    6.0205   13.6576 N.pl3     1 <0>        -0.7538
     39 N8         -1.8357    4.4484   12.8834 N.pl3     1 <0>        -0.7579
     40 N9        -11.6458    0.7642    4.0280 N.pl3     1 <0>        -0.6828
     41 C27       -12.4039    0.6095    2.7840 C.3       1 <0>         0.1472
     42 C28       -12.4362   -0.8677    2.3868 C.3       1 <0>        -0.1634
     43 C29       -13.8336    1.1130    2.9920 C.3       1 <0>        -0.1641
     44 H2          0.7301    5.6976    3.5431 H         1 <0>         0.0557
     45 H3         -0.8610    6.3988    3.1623 H         1 <0>         0.0558
     46 H4         -0.7506    4.7519    3.8286 H         1 <0>         0.0514
     47 H5          0.2944    5.6429    1.1026 H         1 <0>         0.0816
     48 H6          0.4048    3.9960    1.7690 H         1 <0>         0.0679
     49 H7         -0.8972    3.2629   -0.2919 H         1 <0>         0.0572
     50 H8         -2.5146    3.9439   -0.5893 H         1 <0>         0.0633
     51 H9         -1.0673    4.9536   -0.8217 H         1 <0>         0.0679
     52 H10        -1.6195    2.9120    2.5140 H         1 <0>         0.3959
     53 H11        -6.1535    2.9524    2.5266 H         1 <0>         0.1393
     54 H12        -5.6946   -0.4536    5.0900 H         1 <0>         0.1259
     55 H13        -2.2400    1.5375    3.5527 H         1 <0>         0.1228
     56 H14        -3.4504   -1.1634    5.6109 H         1 <0>         0.3994
     57 H15        -2.0921   -0.3779    5.0102 H         1 <0>         0.3993
     58 H16        -7.8106    0.9422    1.8212 H         1 <0>         0.1729
     59 H17        -7.8935    0.8796    7.2179 H         1 <0>         0.1279
     60 H18        -6.4048    0.7687    6.2485 H         1 <0>         0.1270
     61 H19        -6.0078    2.4738    8.2973 H         1 <0>         0.3962
     62 H20        -5.5527    4.9792    7.0757 H         1 <0>         0.1180
     63 H21        -7.0414    5.0901    8.0451 H         1 <0>         0.0827
     64 H22        -6.9471    5.2210   10.3955 H         1 <0>         0.1604
     65 H23        -5.6122    5.4792   12.4421 H         1 <0>         0.1496
     66 H24        -2.0586    4.5006   10.2549 H         1 <0>         0.1432
     67 H25        -1.3756    4.0287    8.6189 H         1 <0>         0.3949
     68 H26        -1.4804    3.6813    6.9784 H         1 <0>         0.4148
     69 H27        -4.1435    6.5417   13.5353 H         1 <0>         0.4478
     70 H28        -1.5525    3.8242   12.1970 H         1 <0>         0.4452
     71 H29        -1.3100    4.5513   13.6920 H         1 <0>         0.4357
     72 H30       -12.1099    0.7843    4.8795 H         1 <0>         0.4149
     73 H31       -11.9264    1.1880    1.9931 H         1 <0>         0.0949
     74 H32       -13.0002   -0.9829    1.4612 H         1 <0>         0.0679
     75 H33       -11.4176   -1.2265    2.2386 H         1 <0>         0.0619
     76 H34       -12.9137   -1.4463    3.1776 H         1 <0>         0.0546
     77 H35       -13.8106    2.1654    3.2750 H         1 <0>         0.0623
     78 H36       -14.3977    0.9979    2.0665 H         1 <0>         0.0772
     79 H37       -14.3111    0.5345    3.7829 H         1 <0>         0.0612
     80 H38        -2.8089    6.1234   14.4663 H         1 <0>         0.4357
@<TRIPOS>BOND
     1    1    2 1
     2    1   44 1
     3    1   45 1
     4    1   46 1
     5    2    3 1
     6    2   47 1
     7    2   48 1
     8    3    4 1
     9    3    5 1
    10    3    6 1
    11    5   49 1
    12    5   50 1
    13    5   51 1
    14    6    7 am
    15    6   52 1
    16    7    8 2
    17    7    9 1
    18    9   14 ar
    19    9   10 ar
    20   10   11 ar
    21   10   53 1
    22   11   12 ar
    23   11   16 1
    24   12   13 ar
    25   12   54 1
    26   13   14 ar
    27   13   15 1
    28   14   55 1
    29   15   56 1
    30   15   57 1
    31   16   22 1
    32   16   17 2
    33   17   18 1
    34   17   58 1
    35   18   19 2
    36   19   20 1
    37   19   40 1
    38   20   21 2
    39   20   22 am
    40   22   23 1
    41   23   24 1
    42   23   59 1
    43   23   60 1
    44   24   25 2
    45   24   26 am
    46   26   27 1
    47   26   61 1
    48   27   28 1
    49   27   62 1
    50   27   63 1
    51   28   33 ar
    52   28   29 ar
    53   29   30 ar
    54   29   64 1
    55   30   31 ar
    56   30   65 1
    57   31   32 ar
    58   31   37 1
    59   32   33 ar
    60   32   66 1
    61   33   34 1
    62   34   35 2
    63   34   36 am
    64   36   67 1
    65   36   68 1
    66   37   38 2
    67   37   39 1
    68   38   69 1
    69   38   80 1
    70   39   70 1
    71   39   71 1
    72   40   41 1
    73   40   72 1
    74   41   42 1
    75   41   43 1
    76   41   73 1
    77   42   74 1
    78   42   75 1
    79   42   76 1
    80   43   77 1
    81   43   78 1
    82   43   79 1
@<TRIPOS>MOLECULE
CHEMBL204654
   68    71     0     0     0
SMALL
USER_CHARGES

@<TRIPOS>ATOM
      1 C1         -2.6722    2.8052   -0.6964 C.3       1 <0>        -0.1619
      2 C2         -1.8214    1.5399   -0.8228 C.3       1 <0>         0.1646
      3 C3         -0.5377    1.7048   -0.0068 C.3       1 <0>        -0.1677
      4 N1         -2.5770    0.3909   -0.3175 N.pl3     1 <0>        -0.6534
      5 C4         -2.7766   -0.7252   -1.1310 C.ar      1 <0>         0.2200
      6 C5         -3.8895   -0.8099   -1.9671 C.ar      1 <0>         0.0342
      7 C6         -4.0532   -1.9343   -2.7609 C.ar      1 <0>         0.2936
      8 N2         -3.1687   -2.9197   -2.7314 N.ar      1 <0>        -0.5359
      9 C7         -2.1001   -2.8745   -1.9504 C.ar      1 <0>         0.3244
     10 C8         -1.8652   -1.7803   -1.1320 C.ar      1 <0>         0.0531
     11 F1         -0.7700   -1.7392   -0.3420 F         1 <0>        -0.0893
     12 O1         -1.2215   -3.9095   -1.9550 O.3       1 <0>        -0.1600
     13 C9         -1.4089   -4.8997   -2.8626 C.ar      1 <0>         0.1116
     14 C10        -2.1033   -4.6436   -4.0368 C.ar      1 <0>        -0.1721
     15 C11        -2.2961   -5.6470   -4.9618 C.ar      1 <0>        -0.1040
     16 C12        -1.7950   -6.9291   -4.7258 C.ar      1 <0>        -0.0627
     17 C13        -1.0990   -7.1995   -3.5552 C.ar      1 <0>        -0.0506
     18 C14        -0.8962   -6.1831   -2.6181 C.ar      1 <0>        -0.1215
     19 C15        -0.1539   -6.4588   -1.3774 C.2       1 <0>         0.5153
     20 O2          0.2918   -7.5785   -1.1672 O.co2     1 <0>        -0.6801
     21 O3          0.0173   -5.5682   -0.5563 O.co2     1 <0>        -0.6604
     22 C16        -2.0071   -8.0038   -5.7272 C.2       1 <0>        -0.0792
     23 C17        -2.6981   -7.7497   -6.9078 C.2       1 <0>        -0.1453
     24 C18        -2.8713   -8.7546   -7.7960 C.2       1 <0>        -0.1902
     25 S1         -2.0532  -10.1191   -6.9873 S.3       1 <0>         0.0441
     26 C19        -1.5234   -9.2637   -5.5129 C.2       1 <0>        -0.1537
     27 O4         -5.1335   -2.0269   -3.5781 O.3       1 <0>        -0.2161
     28 C20        -5.3396   -3.1998   -4.2328 C.ar      1 <0>         0.1038
     29 C21        -4.7593   -4.3696   -3.7604 C.ar      1 <0>        -0.0816
     30 C22        -4.9657   -5.5654   -4.4225 C.ar      1 <0>        -0.0781
     31 C23        -5.7500   -5.6041   -5.5576 C.ar      1 <0>        -0.0791
     32 C24        -6.3371   -4.4339   -6.0396 C.ar      1 <0>        -0.1472
     33 C25        -6.1329   -3.2290   -5.3676 C.ar      1 <0>        -0.0819
     34 C26        -7.1786   -4.4721   -7.2563 C.cat     1 <0>         0.6095
     35 N3         -6.9351   -5.3728   -8.2061 N.pl3     1 <0>        -0.7599
     36 N4         -8.1791   -3.6057   -7.4011 N.pl3     1 <0>        -0.7615
     37 F2         -4.7964    0.1908   -2.0025 F         1 <0>        -0.1069
     38 C27        -3.1231    0.4138    1.0417 C.3       1 <0>         0.1632
     39 C28        -4.6515    0.3896    0.9777 C.3       1 <0>        -0.1663
     40 C29        -2.6254   -0.8110    1.8119 C.3       1 <0>        -0.1705
     41 H1         -2.0808    3.6717   -0.9925 H         1 <0>         0.0651
     42 H2         -3.5449    2.7225   -1.3441 H         1 <0>         0.0584
     43 H3         -2.9968    2.9230    0.3374 H         1 <0>         0.0608
     44 H4         -1.5677    1.3757   -1.8701 H         1 <0>         0.0764
     45 H5         -0.7873    1.7819    1.0514 H         1 <0>         0.0604
     46 H6          0.1075    0.8408   -0.1659 H         1 <0>         0.0629
     47 H7         -0.0189    2.6092   -0.3246 H         1 <0>         0.0643
     48 H8         -2.4940   -3.6548   -4.2262 H         1 <0>         0.1513
     49 H9         -2.8376   -5.4409   -5.8733 H         1 <0>         0.1166
     50 H10        -0.7118   -8.1909   -3.3717 H         1 <0>         0.1402
     51 H11        -3.0906   -6.7644   -7.1118 H         1 <0>         0.1283
     52 H12        -3.3759   -8.7362   -8.7507 H         1 <0>         0.1816
     53 H13        -0.9664   -9.6439   -4.6693 H         1 <0>         0.1928
     54 H14        -4.1444   -4.3451   -2.8729 H         1 <0>         0.1887
     55 H15        -4.5115   -6.4720   -4.0507 H         1 <0>         0.1537
     56 H16        -5.9089   -6.5400   -6.0727 H         1 <0>         0.1403
     57 H17        -6.5884   -2.3208   -5.7336 H         1 <0>         0.1453
     58 H18        -6.2061   -6.0039   -8.1005 H         1 <0>         0.4469
     59 H19        -8.3565   -2.9495   -6.7091 H         1 <0>         0.4465
     60 H20        -8.7307   -3.6307   -8.1987 H         1 <0>         0.4308
     61 H21        -2.7950    1.3205    1.5499 H         1 <0>         0.0932
     62 H22        -4.9824   -0.5574    0.5513 H         1 <0>         0.0500
     63 H23        -5.0590    0.4975    1.9829 H         1 <0>         0.0646
     64 H24        -5.0021    1.2114    0.3534 H         1 <0>         0.0625
     65 H25        -3.0964   -0.8383    2.7945 H         1 <0>         0.0669
     66 H26        -2.8818   -1.7157    1.2607 H         1 <0>         0.0524
     67 H27        -1.5434   -0.7514    1.9292 H         1 <0>         0.0672
     68 H28        -7.4867   -5.3978   -9.0036 H         1 <0>         0.4313
@<TRIPOS>BOND
     1    1    2 1
     2    1   41 1
     3    1   42 1
     4    1   43 1
     5    2    3 1
     6    2    4 1
     7    2   44 1
     8    3   45 1
     9    3   46 1
    10    3   47 1
    11    4    5 1
    12    4   38 1
    13    5   10 ar
    14    5    6 ar
    15    6    7 ar
    16    6   37 1
    17    7    8 ar
    18    7   27 1
    19    8    9 ar
    20    9   10 ar
    21    9   12 1
    22   10   11 1
    23   12   13 1
    24   13   18 ar
    25   13   14 ar
    26   14   15 ar
    27   14   48 1
    28   15   16 ar
    29   15   49 1
    30   16   17 ar
    31   16   22 1
    32   17   18 ar
    33   17   50 1
    34   18   19 1
    35   19   20 2
    36   19   21 1
    37   22   26 2
    38   22   23 1
    39   23   24 2
    40   23   51 1
    41   24   25 1
    42   24   52 1
    43   25   26 1
    44   26   53 1
    45   27   28 1
    46   28   33 ar
    47   28   29 ar
    48   29   30 ar
    49   29   54 1
    50   30   31 ar
    51   30   55 1
    52   31   32 ar
    53   31   56 1
    54   32   33 ar
    55   32   34 1
    56   33   57 1
    57   34   35 2
    58   34   36 1
    59   35   58 1
    60   35   68 1
    61   36   59 1
    62   36   60 1
    63   38   39 1
    64   38   40 1
    65   38   61 1
    66   39   62 1
    67   39   63 1
    68   39   64 1
    69   40   65 1
    70   40   66 1
    71   40   67 1
@<TRIPOS>MOLECULE
CHEMBL199268
   53    55     0     0     0
SMALL
USER_CHARGES

@<TRIPOS>ATOM
      1 C1         -0.0173    1.4248    0.0099 C.3       1 <0>         0.0249
      2 O1          0.0021   -0.0041    0.0020 O.3       1 <0>        -0.3056
      3 C2          0.6062   -0.6075   -1.0564 C.ar      1 <0>         0.1036
      4 C3          1.1729    0.1590   -2.0621 C.ar      1 <0>        -0.1553
      5 C4          1.7870   -0.4560   -3.1371 C.ar      1 <0>        -0.0658
      6 C5          1.8372   -1.8356   -3.2121 C.ar      1 <0>        -0.1065
      7 C6          1.2734   -2.6062   -2.2124 C.ar      1 <0>        -0.1689
      8 C7          0.6617   -1.9961   -1.1290 C.ar      1 <0>         0.0973
      9 O2          0.1119   -2.7526   -0.1417 O.3       1 <0>        -0.2974
     10 C8          0.2064   -4.1715   -0.2827 C.3       1 <0>         0.0997
     11 C9         -0.4529   -4.8385    0.8968 C.ar      1 <0>        -0.0939
     12 C10         0.2857   -5.1285    2.0288 C.ar      1 <0>        -0.0953
     13 C11        -0.3191   -5.7404    3.1107 C.ar      1 <0>        -0.1244
     14 C12        -1.6626   -6.0619    3.0610 C.ar      1 <0>        -0.1109
     15 C13        -2.4015   -5.7712    1.9294 C.ar      1 <0>        -0.1231
     16 C14        -1.7976   -5.1554    0.8490 C.ar      1 <0>        -0.0941
     17 C15         2.4028    0.3792   -4.2300 C.3       1 <0>         0.1016
     18 C16         1.4598    0.4451   -5.4037 C.2       1 <0>         0.4942
     19 O3          0.6304    1.3363   -5.4700 O.co2     1 <0>        -0.6744
     20 O4          1.5262   -0.3929   -6.2868 O.co2     1 <0>        -0.6697
     21 N1          3.6678   -0.2264   -4.6534 N.pl3     1 <0>        -0.6586
     22 C17         4.6566    0.5619   -5.2330 C.ar      1 <0>         0.3052
     23 C18         4.4449    1.9269   -5.4048 C.ar      1 <0>        -0.1979
     24 C19         5.4217    2.7094   -5.9776 C.ar      1 <0>        -0.0012
     25 C20         6.6266    2.1323   -6.3868 C.ar      1 <0>        -0.2552
     26 C21         6.8363    0.7619   -6.2130 C.ar      1 <0>        -0.0024
     27 C22         5.8580   -0.0148   -5.6348 C.ar      1 <0>        -0.2065
     28 C23         7.6764    2.9692   -7.0021 C.cat     1 <0>         0.6019
     29 N2          8.8252    2.4174   -7.3919 N.pl3     1 <0>        -0.7830
     30 N3          7.4748    4.2762   -7.1676 N.pl3     1 <0>        -0.7812
     31 H1          1.0053    1.8021    0.0021 H         1 <0>         0.0528
     32 H2         -0.5445    1.7859   -0.8732 H         1 <0>         0.0585
     33 H3         -0.5275    1.7763    0.9067 H         1 <0>         0.0995
     34 H4          1.1344    1.2368   -2.0063 H         1 <0>         0.1374
     35 H5          2.3175   -2.3124   -4.0537 H         1 <0>         0.1264
     36 H6          1.3136   -3.6837   -2.2735 H         1 <0>         0.1355
     37 H7         -0.2940   -4.4795   -1.2008 H         1 <0>         0.0712
     38 H8          1.2558   -4.4633   -0.3254 H         1 <0>         0.0697
     39 H9          1.3353   -4.8773    2.0676 H         1 <0>         0.1233
     40 H10         0.2581   -5.9675    3.9948 H         1 <0>         0.1245
     41 H11        -2.1350   -6.5406    3.9060 H         1 <0>         0.1237
     42 H12        -3.4510   -6.0227    1.8904 H         1 <0>         0.1253
     43 H13        -2.3757   -4.9249   -0.0336 H         1 <0>         0.1249
     44 H14         2.5890    1.3861   -3.8565 H         1 <0>         0.0930
     45 H15         3.8159   -1.1769   -4.5295 H         1 <0>         0.4074
     46 H16         3.5132    2.3723   -5.0887 H         1 <0>         0.1461
     47 H17         5.2568    3.7684   -6.1110 H         1 <0>         0.1288
     48 H18         7.7666    0.3131   -6.5286 H         1 <0>         0.1280
     49 H19         6.0213   -1.0733   -5.4961 H         1 <0>         0.1393
     50 H20         8.9719    1.4662   -7.2714 H         1 <0>         0.4392
     51 H21         6.6387    4.6778   -6.8839 H         1 <0>         0.4407
     52 H22         8.1643    4.8259   -7.5718 H         1 <0>         0.4240
     53 H23         9.5147    2.9671   -7.7961 H         1 <0>         0.4239
@<TRIPOS>BOND
     1    1    2 1
     2    1   31 1
     3    1   32 1
     4    1   33 1
     5    2    3 1
     6    3    8 ar
     7    3    4 ar
     8    4    5 ar
     9    4   34 1
    10    5    6 ar
    11    5   17 1
    12    6    7 ar
    13    6   35 1
    14    7    8 ar
    15    7   36 1
    16    8    9 1
    17    9   10 1
    18   10   11 1
    19   10   37 1
    20   10   38 1
    21   11   16 ar
    22   11   12 ar
    23   12   13 ar
    24   12   39 1
    25   13   14 ar
    26   13   40 1
    27   14   15 ar
    28   14   41 1
    29   15   16 ar
    30   15   42 1
    31   16   43 1
    32   17   18 1
    33   17   21 1
    34   17   44 1
    35   18   19 2
    36   18   20 1
    37   21   22 1
    38   21   45 1
    39   22   27 ar
    40   22   23 ar
    41   23   24 ar
    42   23   46 1
    43   24   25 ar
    44   24   47 1
    45   25   26 ar
    46   25   28 1
    47   26   27 ar
    48   26   48 1
    49   27   49 1
    50   28   29 2
    51   28   30 1
    52   29   50 1
    53   29   53 1
    54   30   51 1
    55   30   52 1
@<TRIPOS>MOLECULE
CHEMBL199268__1
   53    55     0     0     0
SMALL
USER_CHARGES

@<TRIPOS>ATOM
      1 C1         -0.0173    1.4248    0.0099 C.3       1 <0>         0.0249
      2 O1          0.0021   -0.0041    0.0020 O.3       1 <0>        -0.3056
      3 C2          0.6062   -0.6075   -1.0564 C.ar      1 <0>         0.1045
      4 C3          1.1729    0.1590   -2.0621 C.ar      1 <0>        -0.1511
      5 C4          1.7870   -0.4560   -3.1371 C.ar      1 <0>        -0.0609
      6 C5          1.8372   -1.8356   -3.2121 C.ar      1 <0>        -0.1126
      7 C6          1.2734   -2.6062   -2.2124 C.ar      1 <0>        -0.1682
      8 C7          0.6617   -1.9961   -1.1290 C.ar      1 <0>         0.0969
      9 O2          0.1119   -2.7526   -0.1417 O.3       1 <0>        -0.2973
     10 C8          0.2064   -4.1715   -0.2827 C.3       1 <0>         0.0998
     11 C9         -0.4529   -4.8385    0.8968 C.ar      1 <0>        -0.0939
     12 C10         0.2857   -5.1285    2.0288 C.ar      1 <0>        -0.0940
     13 C11        -0.3191   -5.7404    3.1107 C.ar      1 <0>        -0.1231
     14 C12        -1.6626   -6.0619    3.0610 C.ar      1 <0>        -0.1109
     15 C13        -2.4015   -5.7712    1.9294 C.ar      1 <0>        -0.1245
     16 C14        -1.7976   -5.1554    0.8490 C.ar      1 <0>        -0.0954
     17 C15         2.4028    0.3792   -4.2300 C.3       1 <0>         0.1001
     18 C16         3.8931    0.4594   -4.0217 C.2       1 <0>         0.4926
     19 O3          4.6475   -0.1169   -4.7868 O.co2     1 <0>        -0.6714
     20 O4          4.3446    1.1005   -3.0880 O.co2     1 <0>        -0.6712
     21 N1          2.1238   -0.2354   -5.5303 N.pl3     1 <0>        -0.6572
     22 C17         2.1081    0.5470   -6.6804 C.ar      1 <0>         0.3112
     23 C18         2.3634    1.9126   -6.5950 C.ar      1 <0>        -0.1954
     24 C19         2.3490    2.6891   -7.7314 C.ar      1 <0>        -0.0019
     25 C20         2.0778    2.1053   -8.9714 C.ar      1 <0>        -0.2558
     26 C21         1.8220    0.7342   -9.0541 C.ar      1 <0>        -0.0024
     27 C22         1.8429   -0.0383   -7.9151 C.ar      1 <0>        -0.2066
     28 C23         2.0612    2.9359  -10.1924 C.cat     1 <0>         0.6017
     29 N2          1.8024    2.3776  -11.3746 N.pl3     1 <0>        -0.7834
     30 N3          2.3050    4.2437  -10.1120 N.pl3     1 <0>        -0.7817
     31 H1          1.0053    1.8021    0.0021 H         1 <0>         0.0590
     32 H2         -0.5445    1.7859   -0.8732 H         1 <0>         0.0525
     33 H3         -0.5275    1.7763    0.9067 H         1 <0>         0.0994
     34 H4          1.1344    1.2368   -2.0063 H         1 <0>         0.1369
     35 H5          2.3175   -2.3124   -4.0537 H         1 <0>         0.1241
     36 H6          1.3136   -3.6837   -2.2735 H         1 <0>         0.1352
     37 H7         -0.2940   -4.4795   -1.2008 H         1 <0>         0.0695
     38 H8          1.2558   -4.4633   -0.3254 H         1 <0>         0.0711
     39 H9          1.3353   -4.8773    2.0676 H         1 <0>         0.1250
     40 H10         0.2581   -5.9675    3.9948 H         1 <0>         0.1253
     41 H11        -2.1350   -6.5406    3.9060 H         1 <0>         0.1237
     42 H12        -3.4510   -6.0227    1.8904 H         1 <0>         0.1245
     43 H13        -2.3757   -4.9249   -0.0336 H         1 <0>         0.1232
     44 H14         1.9777    1.3825   -4.2037 H         1 <0>         0.0932
     45 H15         1.9500   -1.1879   -5.5892 H         1 <0>         0.4063
     46 H16         2.5725    2.3634   -5.6361 H         1 <0>         0.1423
     47 H17         2.5467    3.7488   -7.6645 H         1 <0>         0.1281
     48 H18         1.6118    0.2803  -10.0113 H         1 <0>         0.1276
     49 H19         1.6497   -1.0990   -7.9789 H         1 <0>         0.1387
     50 H20         1.6250    1.4258  -11.4331 H         1 <0>         0.4391
     51 H21         2.4933    4.6500   -9.2516 H         1 <0>         0.4405
     52 H22         2.2940    4.7893  -10.9140 H         1 <0>         0.4238
     53 H23         1.7915    2.9232  -12.1766 H         1 <0>         0.4237
@<TRIPOS>BOND
     1    1    2 1
     2    1   31 1
     3    1   32 1
     4    1   33 1
     5    2    3 1
     6    3    8 ar
     7    3    4 ar
     8    4    5 ar
     9    4   34 1
    10    5    6 ar
    11    5   17 1
    12    6    7 ar
    13    6   35 1
    14    7    8 ar
    15    7   36 1
    16    8    9 1
    17    9   10 1
    18   10   11 1
    19   10   37 1
    20   10   38 1
    21   11   16 ar
    22   11   12 ar
    23   12   13 ar
    24   12   39 1
    25   13   14 ar
    26   13   40 1
    27   14   15 ar
    28   14   41 1
    29   15   16 ar
    30   15   42 1
    31   16   43 1
    32   17   18 1
    33   17   21 1
    34   17   44 1
    35   18   19 2
    36   18   20 1
    37   21   22 1
    38   21   45 1
    39   22   27 ar
    40   22   23 ar
    41   23   24 ar
    42   23   46 1
    43   24   25 ar
    44   24   47 1
    45   25   26 ar
    46   25   28 1
    47   26   27 ar
    48   26   48 1
    49   27   49 1
    50   28   29 2
    51   28   30 1
    52   29   50 1
    53   29   53 1
    54   30   51 1
    55   30   52 1
@<TRIPOS>MOLECULE
CHEMBL197563
   69    73     0     0     0
SMALL
USER_CHARGES

@<TRIPOS>ATOM
      1 C1          3.1475    3.7566    3.0758 C.ar      1 <0>        -0.1103
      2 C2          3.1539    2.3639    3.1014 C.ar      1 <0>        -0.1025
      3 C3          3.7268    1.6475    2.0939 C.ar      1 <0>        -0.1093
      4 C4          4.3184    2.3180    1.0148 C.ar      1 <0>        -0.0150
      5 C5          4.3126    3.7337    0.9865 C.ar      1 <0>        -0.0546
      6 C6          3.7129    4.4405    2.0434 C.ar      1 <0>        -0.1036
      7 C7          4.9052    4.4074   -0.0954 C.ar      1 <0>        -0.0753
      8 C8          5.4807    3.7009   -1.1089 C.ar      1 <0>        -0.1289
      9 C9          5.4958    2.3119   -1.0990 C.ar      1 <0>        -0.0807
     10 C10         4.9232    1.6059   -0.0512 C.ar      1 <0>        -0.1181
     11 C11         4.9435    0.1315   -0.0463 C.2       1 <0>         0.5705
     12 O1          3.9042   -0.4905    0.0620 O.2       1 <0>        -0.5182
     13 N1          6.1139   -0.5267   -0.1620 N.am      1 <0>        -0.6038
     14 C12         7.3754    0.2180   -0.1705 C.3       1 <0>         0.1006
     15 C13         7.8919    0.3626    1.2624 C.3       1 <0>        -0.1358
     16 C14         9.2095    1.1404    1.2536 C.3       1 <0>         0.0601
     17 N2          9.7054    1.2791    2.6294 N.3       1 <0>        -0.5361
     18 C15         8.8107    2.1287    3.4288 C.3       1 <0>         0.0165
     19 C16         9.3313    2.1976    4.8669 C.3       1 <0>         0.0623
     20 O2         10.6761    2.6843    4.8589 O.3       1 <0>        -0.3830
     21 C17        11.5748    1.8803    4.0901 C.3       1 <0>         0.0619
     22 C18        11.0770    1.8082    2.6441 C.3       1 <0>         0.0184
     23 C19         6.1245   -1.9870   -0.2793 C.3       1 <0>         0.1441
     24 C20         6.1749   -2.3737   -1.7350 C.ar      1 <0>        -0.0833
     25 C21         4.9895   -2.6514   -2.4131 C.ar      1 <0>        -0.0613
     26 C22         4.9998   -3.0035   -3.7281 C.ar      1 <0>        -0.1135
     27 C23         6.2214   -3.0892   -4.4166 C.ar      1 <0>        -0.0112
     28 C24         6.2647   -3.4500   -5.7758 C.ar      1 <0>        -0.0782
     29 C25         7.4568   -3.5263   -6.4204 C.ar      1 <0>        -0.0967
     30 C26         8.6595   -3.2481   -5.7473 C.ar      1 <0>        -0.1584
     31 C27         8.6503   -2.8901   -4.4103 C.ar      1 <0>        -0.0157
     32 C28         7.4276   -2.8063   -3.7270 C.ar      1 <0>        -0.0657
     33 C29         7.3768   -2.4411   -2.3697 C.ar      1 <0>        -0.0848
     34 C30         9.9448   -3.3394   -6.4736 C.cat     1 <0>         0.6022
     35 N3         10.0802   -4.1985   -7.4822 N.pl3     1 <0>        -0.7580
     36 N4         10.9667   -2.5625   -6.1189 N.pl3     1 <0>        -0.7621
     37 H1          2.6833    4.3017    3.8844 H         1 <0>         0.1288
     38 H2          2.6987    1.8446    3.9318 H         1 <0>         0.1278
     39 H3          3.7252    0.5680    2.1269 H         1 <0>         0.1302
     40 H4          3.7005    5.5204    2.0362 H         1 <0>         0.1322
     41 H5          4.9042    5.4871   -0.1239 H         1 <0>         0.1335
     42 H6          5.9327    4.2303   -1.9346 H         1 <0>         0.1302
     43 H7          5.9582    1.7764   -1.9149 H         1 <0>         0.1254
     44 H8          8.1107   -0.3195   -0.7693 H         1 <0>         0.0782
     45 H9          7.2108    1.2067   -0.5988 H         1 <0>         0.0913
     46 H10         7.1567    0.9001    1.8612 H         1 <0>         0.0703
     47 H11         8.0566   -0.6262    1.6908 H         1 <0>         0.0774
     48 H12         9.9447    0.6028    0.6548 H         1 <0>         0.0753
     49 H13         9.0448    2.1291    0.8253 H         1 <0>         0.0376
     50 H14         8.7844    3.1317    3.0028 H         1 <0>         0.0441
     51 H15         7.8066    1.7045    3.4251 H         1 <0>         0.0874
     52 H16         8.7036    2.8720    5.4493 H         1 <0>         0.0997
     53 H17         9.3071    1.2023    5.3108 H         1 <0>         0.0606
     54 H18        12.5697    2.3252    4.1107 H         1 <0>         0.0998
     55 H19        11.6158    0.8758    4.5114 H         1 <0>         0.0606
     56 H20        11.7272    1.1501    2.0677 H         1 <0>         0.0854
     57 H21        11.0869    2.8060    2.2056 H         1 <0>         0.0439
     58 H22         6.9998   -2.3863    0.2332 H         1 <0>         0.0952
     59 H23         5.2208   -2.3945    0.1738 H         1 <0>         0.1059
     60 H24         4.0483   -2.5867   -1.8873 H         1 <0>         0.1413
     61 H25         4.0728   -3.2165   -4.2398 H         1 <0>         0.1423
     62 H26         5.3492   -3.6665   -6.3063 H         1 <0>         0.1485
     63 H27         7.4819   -3.8046   -7.4636 H         1 <0>         0.1368
     64 H28         9.5765   -2.6776   -3.8971 H         1 <0>         0.1427
     65 H29         8.2873   -2.2189   -1.8329 H         1 <0>         0.1373
     66 H30         9.3359   -4.7643   -7.7406 H         1 <0>         0.4470
     67 H31        10.8681   -1.9368   -5.3843 H         1 <0>         0.4449
     68 H32        11.8096   -2.6223   -6.5952 H         1 <0>         0.4330
     69 H33        10.9231   -4.2583   -7.9585 H         1 <0>         0.4327
@<TRIPOS>BOND
     1    1    6 ar
     2    1    2 ar
     3    1   37 1
     4    2    3 ar
     5    2   38 1
     6    3    4 ar
     7    3   39 1
     8    4   10 ar
     9    4    5 ar
    10    5    6 ar
    11    5    7 ar
    12    6   40 1
    13    7    8 ar
    14    7   41 1
    15    8    9 ar
    16    8   42 1
    17    9   10 ar
    18    9   43 1
    19   10   11 1
    20   11   12 2
    21   11   13 am
    22   13   14 1
    23   13   23 1
    24   14   15 1
    25   14   44 1
    26   14   45 1
    27   15   16 1
    28   15   46 1
    29   15   47 1
    30   16   17 1
    31   16   48 1
    32   16   49 1
    33   17   22 1
    34   17   18 1
    35   18   19 1
    36   18   50 1
    37   18   51 1
    38   19   20 1
    39   19   52 1
    40   19   53 1
    41   20   21 1
    42   21   22 1
    43   21   54 1
    44   21   55 1
    45   22   56 1
    46   22   57 1
    47   23   24 1
    48   23   58 1
    49   23   59 1
    50   24   33 ar
    51   24   25 ar
    52   25   26 ar
    53   25   60 1
    54   26   27 ar
    55   26   61 1
    56   27   32 ar
    57   27   28 ar
    58   28   29 ar
    59   28   62 1
    60   29   30 ar
    61   29   63 1
    62   30   31 ar
    63   30   34 1
    64   31   32 ar
    65   31   64 1
    66   32   33 ar
    67   33   65 1
    68   34   35 2
    69   34   36 1
    70   35   66 1
    71   35   69 1
    72   36   67 1
    73   36   68 1
@<TRIPOS>MOLECULE
CHEMBL197563__1
   70    74     0     0     0
SMALL
USER_CHARGES

@<TRIPOS>ATOM
      1 C1          3.1475    3.7566    3.0758 C.ar      1 <0>        -0.1088
      2 C2          3.1539    2.3639    3.1014 C.ar      1 <0>        -0.0966
      3 C3          3.7268    1.6475    2.0939 C.ar      1 <0>        -0.1180
      4 C4          4.3184    2.3180    1.0148 C.ar      1 <0>        -0.0173
      5 C5          4.3126    3.7337    0.9865 C.ar      1 <0>        -0.0561
      6 C6          3.7129    4.4405    2.0434 C.ar      1 <0>        -0.1011
      7 C7          4.9052    4.4074   -0.0954 C.ar      1 <0>        -0.0698
      8 C8          5.4807    3.7009   -1.1089 C.ar      1 <0>        -0.1318
      9 C9          5.4958    2.3119   -1.0990 C.ar      1 <0>        -0.0811
     10 C10         4.9232    1.6059   -0.0512 C.ar      1 <0>        -0.1271
     11 C11         4.9435    0.1315   -0.0463 C.2       1 <0>         0.5684
     12 O1          3.9042   -0.4905    0.0620 O.2       1 <0>        -0.5006
     13 N1          6.1139   -0.5267   -0.1620 N.am      1 <0>        -0.6087
     14 C12         7.3754    0.2180   -0.1705 C.3       1 <0>         0.1051
     15 C13         7.8919    0.3626    1.2624 C.3       1 <0>        -0.1754
     16 C14         9.2095    1.1404    1.2536 C.3       1 <0>        -0.0057
     17 N2          9.7054    1.2791    2.6294 N.4       1 <0>        -0.3849
     18 C15         8.7718    2.1067    3.4056 C.3       1 <0>        -0.0484
     19 C16         9.2906    2.2496    4.8386 C.3       1 <0>         0.0363
     20 O2         10.6013    2.8216    4.8108 O.3       1 <0>        -0.3536
     21 C17        11.5422    2.0631    4.0458 C.3       1 <0>         0.0346
     22 C18        11.0276    1.9199    2.6113 C.3       1 <0>        -0.0429
     23 C19         6.1245   -1.9870   -0.2793 C.3       1 <0>         0.1455
     24 C20         6.1749   -2.3737   -1.7350 C.ar      1 <0>        -0.0885
     25 C21         4.9895   -2.6514   -2.4131 C.ar      1 <0>        -0.0676
     26 C22         4.9998   -3.0035   -3.7281 C.ar      1 <0>        -0.1055
     27 C23         6.2214   -3.0892   -4.4166 C.ar      1 <0>        -0.0105
     28 C24         6.2647   -3.4500   -5.7758 C.ar      1 <0>        -0.0759
     29 C25         7.4568   -3.5263   -6.4204 C.ar      1 <0>        -0.0940
     30 C26         8.6595   -3.2481   -5.7473 C.ar      1 <0>        -0.1508
     31 C27         8.6503   -2.8901   -4.4103 C.ar      1 <0>        -0.0225
     32 C28         7.4276   -2.8063   -3.7270 C.ar      1 <0>        -0.0654
     33 C29         7.3768   -2.4411   -2.3697 C.ar      1 <0>        -0.0878
     34 C30         9.9448   -3.3394   -6.4736 C.cat     1 <0>         0.6006
     35 N3         10.0802   -4.1985   -7.4822 N.pl3     1 <0>        -0.7536
     36 N4         10.9667   -2.5625   -6.1189 N.pl3     1 <0>        -0.7630
     37 H1          2.6833    4.3017    3.8844 H         1 <0>         0.1322
     38 H2          2.6987    1.8446    3.9318 H         1 <0>         0.1301
     39 H3          3.7252    0.5680    2.1269 H         1 <0>         0.1299
     40 H4          3.7005    5.5204    2.0362 H         1 <0>         0.1353
     41 H5          4.9042    5.4871   -0.1239 H         1 <0>         0.1364
     42 H6          5.9327    4.2303   -1.9346 H         1 <0>         0.1329
     43 H7          5.9582    1.7764   -1.9149 H         1 <0>         0.1268
     44 H8          8.1107   -0.3195   -0.7693 H         1 <0>         0.0887
     45 H9          7.2108    1.2067   -0.5988 H         1 <0>         0.1026
     46 H10         7.1567    0.9001    1.8612 H         1 <0>         0.0946
     47 H11         8.0566   -0.6262    1.6908 H         1 <0>         0.0938
     48 H12         9.9447    0.6028    0.6548 H         1 <0>         0.1336
     49 H13         9.0448    2.1291    0.8253 H         1 <0>         0.1340
     50 H14         8.6926    3.0926    2.9476 H         1 <0>         0.1407
     51 H15         7.7906    1.6321    3.4198 H         1 <0>         0.1420
     52 H16         8.6223    2.8984    5.4048 H         1 <0>         0.1435
     53 H17         9.3319    1.2678    5.3104 H         1 <0>         0.0819
     54 H18        12.5035    2.5770    4.0380 H         1 <0>         0.1435
     55 H19        11.6605    1.0750    4.4904 H         1 <0>         0.0817
     56 H20        11.7210    1.3067    2.0357 H         1 <0>         0.1421
     57 H21        10.9476    2.9059    2.1535 H         1 <0>         0.1400
     58 H22         6.9998   -2.3863    0.2332 H         1 <0>         0.0926
     59 H23         5.2208   -2.3945    0.1738 H         1 <0>         0.1093
     60 H24         4.0483   -2.5867   -1.8873 H         1 <0>         0.1413
     61 H25         4.0728   -3.2165   -4.2398 H         1 <0>         0.1448
     62 H26         5.3492   -3.6665   -6.3063 H         1 <0>         0.1514
     63 H27         7.4819   -3.8046   -7.4636 H         1 <0>         0.1399
     64 H28         9.5765   -2.6776   -3.8971 H         1 <0>         0.1413
     65 H29         8.2873   -2.2189   -1.8329 H         1 <0>         0.1324
     66 H30         9.3359   -4.7643   -7.7406 H         1 <0>         0.4483
     67 H31        10.8681   -1.9368   -5.3843 H         1 <0>         0.4428
     68 H32        11.8096   -2.6223   -6.5952 H         1 <0>         0.4344
     69 H33        10.9231   -4.2583   -7.9585 H         1 <0>         0.4348
     70 H34         9.7795    0.3668    3.0539 H         1 <0>         0.4230
@<TRIPOS>BOND
     1    1    6 ar
     2    1    2 ar
     3    1   37 1
     4    2    3 ar
     5    2   38 1
     6    3    4 ar
     7    3   39 1
     8    4   10 ar
     9    4    5 ar
    10    5    6 ar
    11    5    7 ar
    12    6   40 1
    13    7    8 ar
    14    7   41 1
    15    8    9 ar
    16    8   42 1
    17    9   10 ar
    18    9   43 1
    19   10   11 1
    20   11   12 2
    21   11   13 am
    22   13   14 1
    23   13   23 1
    24   14   15 1
    25   14   44 1
    26   14   45 1
    27   15   16 1
    28   15   46 1
    29   15   47 1
    30   16   17 1
    31   16   48 1
    32   16   49 1
    33   17   22 1
    34   17   18 1
    35   17   70 1
    36   18   19 1
    37   18   50 1
    38   18   51 1
    39   19   20 1
    40   19   52 1
    41   19   53 1
    42   20   21 1
    43   21   22 1
    44   21   54 1
    45   21   55 1
    46   22   56 1
    47   22   57 1
    48   23   24 1
    49   23   58 1
    50   23   59 1
    51   24   33 ar
    52   24   25 ar
    53   25   26 ar
    54   25   60 1
    55   26   27 ar
    56   26   61 1
    57   27   32 ar
    58   27   28 ar
    59   28   29 ar
    60   28   62 1
    61   29   30 ar
    62   29   63 1
    63   30   31 ar
    64   30   34 1
    65   31   32 ar
    66   31   64 1
    67   32   33 ar
    68   33   65 1
    69   34   35 2
    70   34   36 1
    71   35   66 1
    72   35   69 1
    73   36   67 1
    74   36   68 1
